MODEL 1
REMARK VINA RESULT:      -7.4      0.000      0.000
REMARK  Name = 
REMARK  5 active torsions:
REMARK  status: ('A' for Active; 'I' for Inactive)
REMARK    1  A    between atoms: O_1  and  C_2
REMARK    2  A    between atoms: C_5  and  C_8
REMARK    3  A    between atoms: C_9  and  O_10
REMARK    4  A    between atoms: C_17  and  O_18
REMARK    5  A    between atoms: C_20  and  O_21
REMARK                            x       y       z     vdW  Elec       q    Type
REMARK                         _______ _______ _______ _____ _____    ______ ____
ROOT
ATOM      1  C   UNL     1       8.691  -2.710  23.881  0.00  0.00    +0.000 A 
ATOM      2  C   UNL     1       8.384  -2.596  25.188  0.00  0.00    +0.000 A 
ATOM      3  C   UNL     1       8.364  -3.918  25.832  0.00  0.00    +0.000 A 
ATOM      4  O   UNL     1       9.117  -4.229  26.738  0.00  0.00    +0.000 OA
ATOM      5  C   UNL     1       7.398  -4.803  25.180  0.00  0.00    +0.000 A 
ATOM      6  C   UNL     1       7.235  -4.591  23.801  0.00  0.00    +0.000 A 
ATOM      7  O   UNL     1       8.057  -3.706  23.103  0.00  0.00    +0.000 OA
ATOM      8  C   UNL     1       6.173  -5.221  23.158  0.00  0.00    +0.000 A 
ATOM      9  C   UNL     1       5.316  -6.035  23.913  0.00  0.00    +0.000 A 
ATOM     10  C   UNL     1       5.523  -6.266  25.276  0.00  0.00    +0.000 A 
ATOM     11  C   UNL     1       6.579  -5.633  25.918  0.00  0.00    +0.000 A 
ENDROOT
BRANCH   1  15
ATOM     12  C   UNL     1      10.037   0.997  22.204  0.00  0.00    +0.000 A 
ATOM     13  C   UNL     1      10.416   0.634  23.485  0.00  0.00    +0.000 A 
ATOM     14  C   UNL     1      10.020  -0.608  23.971  0.00  0.00    +0.000 A 
ATOM     15  C   UNL     1       9.200  -1.486  23.216  0.00  0.00    +0.000 A 
ATOM     16  C   UNL     1       8.906  -1.130  21.901  0.00  0.00    +0.000 A 
ATOM     17  C   UNL     1       9.316   0.115  21.400  0.00  0.00    +0.000 A 
BRANCH  12  18
ATOM     18  O   UNL     1      10.350   2.225  21.702  0.00  0.00    +0.000 OA
ATOM     19  H   UNL     1      10.886   2.702  22.359  0.00  0.00    +0.000 HD
ENDBRANCH  12  18
ENDBRANCH   1  15
BRANCH   2  20
ATOM     20  O   UNL     1       7.354  -1.714  25.551  0.00  0.00    +0.000 OA
ATOM     21  H   UNL     1       6.940  -1.405  24.720  0.00  0.00    +0.000 HD
ENDBRANCH   2  20
BRANCH   9  22
ATOM     22  O   UNL     1       4.207  -6.613  23.365  0.00  0.00    +0.000 OA
ATOM     23  H   UNL     1       3.946  -6.116  22.573  0.00  0.00    +0.000 HD
ENDBRANCH   9  22
BRANCH  11  24
ATOM     24  O   UNL     1       6.752  -5.764  27.262  0.00  0.00    +0.000 OA
ATOM     25  H   UNL     1       7.582  -5.346  27.531  0.00  0.00    +0.000 HD
ENDBRANCH  11  24
TORSDOF 5
ENDMDL
MODEL 2
REMARK VINA RESULT:      -7.0      1.387      3.010
REMARK  Name = 
REMARK  5 active torsions:
REMARK  status: ('A' for Active; 'I' for Inactive)
REMARK    1  A    between atoms: O_1  and  C_2
REMARK    2  A    between atoms: C_5  and  C_8
REMARK    3  A    between atoms: C_9  and  O_10
REMARK    4  A    between atoms: C_17  and  O_18
REMARK    5  A    between atoms: C_20  and  O_21
REMARK                            x       y       z     vdW  Elec       q    Type
REMARK                         _______ _______ _______ _____ _____    ______ ____
ROOT
ATOM      1  C   UNL     1       8.277  -1.186  23.530  0.00  0.00    +0.000 A 
ATOM      2  C   UNL     1       8.207  -2.108  22.550  0.00  0.00    +0.000 A 
ATOM      3  C   UNL     1       7.025  -2.964  22.730  0.00  0.00    +0.000 A 
ATOM      4  O   UNL     1       6.118  -3.027  21.917  0.00  0.00    +0.000 OA
ATOM      5  C   UNL     1       7.057  -3.635  24.029  0.00  0.00    +0.000 A 
ATOM      6  C   UNL     1       7.669  -2.904  25.060  0.00  0.00    +0.000 A 
ATOM      7  O   UNL     1       8.065  -1.580  24.871  0.00  0.00    +0.000 OA
ATOM      8  C   UNL     1       7.952  -3.559  26.255  0.00  0.00    +0.000 A 
ATOM      9  C   UNL     1       7.617  -4.917  26.375  0.00  0.00    +0.000 A 
ATOM     10  C   UNL     1       6.969  -5.612  25.351  0.00  0.00    +0.000 A 
ATOM     11  C   UNL     1       6.691  -4.960  24.158  0.00  0.00    +0.000 A 
ENDROOT
BRANCH   1  15
ATOM     12  C   UNL     1      10.533   2.414  22.967  0.00  0.00    +0.000 A 
ATOM     13  C   UNL     1      10.568   1.755  24.183  0.00  0.00    +0.000 A 
ATOM     14  C   UNL     1       9.881   0.551  24.309  0.00  0.00    +0.000 A 
ATOM     15  C   UNL     1       9.108   0.010  23.249  0.00  0.00    +0.000 A 
ATOM     16  C   UNL     1       9.162   0.652  22.013  0.00  0.00    +0.000 A 
ATOM     17  C   UNL     1       9.866   1.858  21.876  0.00  0.00    +0.000 A 
BRANCH  12  18
ATOM     18  O   UNL     1      11.141   3.623  22.808  0.00  0.00    +0.000 OA
ATOM     19  H   UNL     1      12.104   3.501  22.887  0.00  0.00    +0.000 HD
ENDBRANCH  12  18
ENDBRANCH   1  15
BRANCH   2  20
ATOM     20  O   UNL     1       9.391  -2.758  22.168  0.00  0.00    +0.000 OA
ATOM     21  H   UNL     1       9.599  -2.458  21.261  0.00  0.00    +0.000 HD
ENDBRANCH   2  20
BRANCH   9  22
ATOM     22  O   UNL     1       7.943  -5.642  27.485  0.00  0.00    +0.000 OA
ATOM     23  H   UNL     1       8.909  -5.678  27.570  0.00  0.00    +0.000 HD
ENDBRANCH   9  22
BRANCH  11  24
ATOM     24  O   UNL     1       6.145  -5.635  23.109  0.00  0.00    +0.000 OA
ATOM     25  H   UNL     1       6.842  -5.930  22.506  0.00  0.00    +0.000 HD
ENDBRANCH  11  24
TORSDOF 5
ENDMDL
MODEL 3
REMARK VINA RESULT:      -6.9      2.475      6.779
REMARK  Name = 
REMARK  5 active torsions:
REMARK  status: ('A' for Active; 'I' for Inactive)
REMARK    1  A    between atoms: O_1  and  C_2
REMARK    2  A    between atoms: C_5  and  C_8
REMARK    3  A    between atoms: C_9  and  O_10
REMARK    4  A    between atoms: C_17  and  O_18
REMARK    5  A    between atoms: C_20  and  O_21
REMARK                            x       y       z     vdW  Elec       q    Type
REMARK                         _______ _______ _______ _____ _____    ______ ____
ROOT
ATOM      1  C   UNL     1       8.002  -1.651  23.223  0.00  0.00    +0.000 A 
ATOM      2  C   UNL     1       9.289  -1.316  23.008  0.00  0.00    +0.000 A 
ATOM      3  C   UNL     1       9.653  -0.129  23.798  0.00  0.00    +0.000 A 
ATOM      4  O   UNL     1      10.514  -0.143  24.661  0.00  0.00    +0.000 OA
ATOM      5  C   UNL     1       8.790   1.005  23.467  0.00  0.00    +0.000 A 
ATOM      6  C   UNL     1       7.476   0.666  23.105  0.00  0.00    +0.000 A 
ATOM      7  O   UNL     1       7.011  -0.643  23.216  0.00  0.00    +0.000 OA
ATOM      8  C   UNL     1       6.670   1.655  22.550  0.00  0.00    +0.000 A 
ATOM      9  C   UNL     1       7.204   2.941  22.374  0.00  0.00    +0.000 A 
ATOM     10  C   UNL     1       8.501   3.266  22.781  0.00  0.00    +0.000 A 
ATOM     11  C   UNL     1       9.307   2.278  23.331  0.00  0.00    +0.000 A 
ENDROOT
BRANCH   1  15
ATOM     12  C   UNL     1       6.596  -5.594  22.303  0.00  0.00    +0.000 A 
ATOM     13  C   UNL     1       6.112  -4.502  21.604  0.00  0.00    +0.000 A 
ATOM     14  C   UNL     1       6.643  -3.245  21.879  0.00  0.00    +0.000 A 
ATOM     15  C   UNL     1       7.622  -3.045  22.886  0.00  0.00    +0.000 A 
ATOM     16  C   UNL     1       8.149  -4.172  23.513  0.00  0.00    +0.000 A 
ATOM     17  C   UNL     1       7.629  -5.444  23.228  0.00  0.00    +0.000 A 
BRANCH  12  18
ATOM     18  O   UNL     1       6.071  -6.837  22.112  0.00  0.00    +0.000 OA
ATOM     19  H   UNL     1       5.423  -7.013  22.817  0.00  0.00    +0.000 HD
ENDBRANCH  12  18
ENDBRANCH   1  15
BRANCH   2  20
ATOM     20  O   UNL     1       9.771  -1.354  21.690  0.00  0.00    +0.000 OA
ATOM     21  H   UNL     1       9.771  -0.432  21.361  0.00  0.00    +0.000 HD
ENDBRANCH   2  20
BRANCH   9  22
ATOM     22  O   UNL     1       6.498   3.934  21.758  0.00  0.00    +0.000 OA
ATOM     23  H   UNL     1       5.549   3.754  21.847  0.00  0.00    +0.000 HD
ENDBRANCH   9  22
BRANCH  11  24
ATOM     24  O   UNL     1      10.604   2.540  23.651  0.00  0.00    +0.000 OA
ATOM     25  H   UNL     1      11.156   2.497  22.857  0.00  0.00    +0.000 HD
ENDBRANCH  11  24
TORSDOF 5
ENDMDL
MODEL 4
REMARK VINA RESULT:      -6.9      1.239      1.390
REMARK  Name = 
REMARK  5 active torsions:
REMARK  status: ('A' for Active; 'I' for Inactive)
REMARK    1  A    between atoms: O_1  and  C_2
REMARK    2  A    between atoms: C_5  and  C_8
REMARK    3  A    between atoms: C_9  and  O_10
REMARK    4  A    between atoms: C_17  and  O_18
REMARK    5  A    between atoms: C_20  and  O_21
REMARK                            x       y       z     vdW  Elec       q    Type
REMARK                         _______ _______ _______ _____ _____    ______ ____
ROOT
ATOM      1  C   UNL     1       8.079  -2.774  23.911  0.00  0.00    +0.000 A 
ATOM      2  C   UNL     1       8.577  -2.827  25.162  0.00  0.00    +0.000 A 
ATOM      3  C   UNL     1       8.645  -4.220  25.632  0.00  0.00    +0.000 A 
ATOM      4  O   UNL     1       9.691  -4.772  25.926  0.00  0.00    +0.000 OA
ATOM      5  C   UNL     1       7.323  -4.846  25.605  0.00  0.00    +0.000 A 
ATOM      6  C   UNL     1       6.473  -4.396  24.582  0.00  0.00    +0.000 A 
ATOM      7  O   UNL     1       6.933  -3.535  23.586  0.00  0.00    +0.000 OA
ATOM      8  C   UNL     1       5.131  -4.762  24.631  0.00  0.00    +0.000 A 
ATOM      9  C   UNL     1       4.689  -5.558  25.698  0.00  0.00    +0.000 A 
ATOM     10  C   UNL     1       5.562  -6.030  26.682  0.00  0.00    +0.000 A 
ATOM     11  C   UNL     1       6.899  -5.661  26.635  0.00  0.00    +0.000 A 
ENDROOT
BRANCH   1  15
ATOM     12  C   UNL     1       9.207   0.810  21.848  0.00  0.00    +0.000 A 
ATOM     13  C   UNL     1      10.047  -0.290  21.843  0.00  0.00    +0.000 A 
ATOM     14  C   UNL     1       9.619  -1.460  22.462  0.00  0.00    +0.000 A 
ATOM     15  C   UNL     1       8.374  -1.542  23.139  0.00  0.00    +0.000 A 
ATOM     16  C   UNL     1       7.516  -0.447  23.054  0.00  0.00    +0.000 A 
ATOM     17  C   UNL     1       7.937   0.730  22.417  0.00  0.00    +0.000 A 
BRANCH  12  18
ATOM     18  O   UNL     1       9.602   1.996  21.306  0.00  0.00    +0.000 OA
ATOM     19  H   UNL     1       9.306   2.028  20.379  0.00  0.00    +0.000 HD
ENDBRANCH  12  18
ENDBRANCH   1  15
BRANCH   2  20
ATOM     20  O   UNL     1       8.126  -1.880  26.094  0.00  0.00    +0.000 OA
ATOM     21  H   UNL     1       7.452  -1.335  25.642  0.00  0.00    +0.000 HD
ENDBRANCH   2  20
BRANCH   9  22
ATOM     22  O   UNL     1       3.371  -5.882  25.855  0.00  0.00    +0.000 OA
ATOM     23  H   UNL     1       3.290  -6.570  26.535  0.00  0.00    +0.000 HD
ENDBRANCH   9  22
BRANCH  11  24
ATOM     24  O   UNL     1       7.755  -6.028  27.629  0.00  0.00    +0.000 OA
ATOM     25  H   UNL     1       8.638  -5.674  27.453  0.00  0.00    +0.000 HD
ENDBRANCH  11  24
TORSDOF 5
ENDMDL
MODEL 5
REMARK VINA RESULT:      -6.9      1.671      6.459
REMARK  Name = 
REMARK  5 active torsions:
REMARK  status: ('A' for Active; 'I' for Inactive)
REMARK    1  A    between atoms: O_1  and  C_2
REMARK    2  A    between atoms: C_5  and  C_8
REMARK    3  A    between atoms: C_9  and  O_10
REMARK    4  A    between atoms: C_17  and  O_18
REMARK    5  A    between atoms: C_20  and  O_21
REMARK                            x       y       z     vdW  Elec       q    Type
REMARK                         _______ _______ _______ _____ _____    ______ ____
ROOT
ATOM      1  C   UNL     1       7.098  -2.537  24.398  0.00  0.00    +0.000 A 
ATOM      2  C   UNL     1       8.303  -2.688  24.982  0.00  0.00    +0.000 A 
ATOM      3  C   UNL     1       8.753  -1.418  25.574  0.00  0.00    +0.000 A 
ATOM      4  O   UNL     1       8.954  -1.275  26.768  0.00  0.00    +0.000 OA
ATOM      5  C   UNL     1       8.830  -0.366  24.561  0.00  0.00    +0.000 A 
ATOM      6  C   UNL     1       7.885  -0.467  23.527  0.00  0.00    +0.000 A 
ATOM      7  O   UNL     1       6.863  -1.414  23.572  0.00  0.00    +0.000 OA
ATOM      8  C   UNL     1       8.042   0.346  22.408  0.00  0.00    +0.000 A 
ATOM      9  C   UNL     1       9.135   1.225  22.362  0.00  0.00    +0.000 A 
ATOM     10  C   UNL     1      10.038   1.339  23.422  0.00  0.00    +0.000 A 
ATOM     11  C   UNL     1       9.884   0.525  24.535  0.00  0.00    +0.000 A 
ENDROOT
BRANCH   1  15
ATOM     12  C   UNL     1       5.057  -6.277  23.936  0.00  0.00    +0.000 A 
ATOM     13  C   UNL     1       5.317  -5.778  25.200  0.00  0.00    +0.000 A 
ATOM     14  C   UNL     1       5.918  -4.528  25.313  0.00  0.00    +0.000 A 
ATOM     15  C   UNL     1       6.316  -3.777  24.177  0.00  0.00    +0.000 A 
ATOM     16  C   UNL     1       5.965  -4.267  22.920  0.00  0.00    +0.000 A 
ATOM     17  C   UNL     1       5.345  -5.521  22.801  0.00  0.00    +0.000 A 
BRANCH  12  18
ATOM     18  O   UNL     1       4.524  -7.520  23.769  0.00  0.00    +0.000 OA
ATOM     19  H   UNL     1       3.705  -7.580  24.292  0.00  0.00    +0.000 HD
ENDBRANCH  12  18
ENDBRANCH   1  15
BRANCH   2  20
ATOM     20  O   UNL     1       9.278  -3.435  24.303  0.00  0.00    +0.000 OA
ATOM     21  H   UNL     1       9.220  -3.186  23.359  0.00  0.00    +0.000 HD
ENDBRANCH   2  20
BRANCH   9  22
ATOM     22  O   UNL     1       9.397   1.989  21.261  0.00  0.00    +0.000 OA
ATOM     23  H   UNL     1       9.688   2.870  21.545  0.00  0.00    +0.000 HD
ENDBRANCH   9  22
BRANCH  11  24
ATOM     24  O   UNL     1      10.800   0.546  25.543  0.00  0.00    +0.000 OA
ATOM     25  H   UNL     1      10.415   0.174  26.349  0.00  0.00    +0.000 HD
ENDBRANCH  11  24
TORSDOF 5
ENDMDL
MODEL 6
REMARK VINA RESULT:      -6.7      2.120      2.923
REMARK  Name = 
REMARK  5 active torsions:
REMARK  status: ('A' for Active; 'I' for Inactive)
REMARK    1  A    between atoms: O_1  and  C_2
REMARK    2  A    between atoms: C_5  and  C_8
REMARK    3  A    between atoms: C_9  and  O_10
REMARK    4  A    between atoms: C_17  and  O_18
REMARK    5  A    between atoms: C_20  and  O_21
REMARK                            x       y       z     vdW  Elec       q    Type
REMARK                         _______ _______ _______ _____ _____    ______ ____
ROOT
ATOM      1  C   UNL     1       8.671  -0.442  23.264  0.00  0.00    +0.000 A 
ATOM      2  C   UNL     1       9.177  -1.201  24.254  0.00  0.00    +0.000 A 
ATOM      3  C   UNL     1       9.390  -2.581  23.790  0.00  0.00    +0.000 A 
ATOM      4  O   UNL     1      10.489  -3.108  23.751  0.00  0.00    +0.000 OA
ATOM      5  C   UNL     1       8.140  -3.172  23.313  0.00  0.00    +0.000 A 
ATOM      6  C   UNL     1       7.243  -2.267  22.722  0.00  0.00    +0.000 A 
ATOM      7  O   UNL     1       7.607  -0.943  22.479  0.00  0.00    +0.000 OA
ATOM      8  C   UNL     1       5.946  -2.699  22.462  0.00  0.00    +0.000 A 
ATOM      9  C   UNL     1       5.593  -4.014  22.802  0.00  0.00    +0.000 A 
ATOM     10  C   UNL     1       6.515  -4.910  23.349  0.00  0.00    +0.000 A 
ATOM     11  C   UNL     1       7.807  -4.477  23.614  0.00  0.00    +0.000 A 
ENDROOT
BRANCH   1  15
ATOM     12  C   UNL     1       9.022   3.828  23.395  0.00  0.00    +0.000 A 
ATOM     13  C   UNL     1       7.794   3.238  23.150  0.00  0.00    +0.000 A 
ATOM     14  C   UNL     1       7.702   1.850  23.186  0.00  0.00    +0.000 A 
ATOM     15  C   UNL     1       8.834   1.025  23.412  0.00  0.00    +0.000 A 
ATOM     16  C   UNL     1      10.037   1.649  23.739  0.00  0.00    +0.000 A 
ATOM     17  C   UNL     1      10.132   3.049  23.720  0.00  0.00    +0.000 A 
BRANCH  12  18
ATOM     18  O   UNL     1       9.178   5.180  23.316  0.00  0.00    +0.000 OA
ATOM     19  H   UNL     1       8.952   5.570  24.179  0.00  0.00    +0.000 HD
ENDBRANCH  12  18
ENDBRANCH   1  15
BRANCH   2  20
ATOM     20  O   UNL     1       8.636  -1.058  25.541  0.00  0.00    +0.000 OA
ATOM     21  H   UNL     1       7.717  -1.391  25.502  0.00  0.00    +0.000 HD
ENDBRANCH   2  20
BRANCH   9  22
ATOM     22  O   UNL     1       4.317  -4.476  22.653  0.00  0.00    +0.000 OA
ATOM     23  H   UNL     1       3.703  -3.868  23.096  0.00  0.00    +0.000 HD
ENDBRANCH   9  22
BRANCH  11  24
ATOM     24  O   UNL     1       8.701  -5.297  24.232  0.00  0.00    +0.000 OA
ATOM     25  H   UNL     1       8.789  -5.049  25.163  0.00  0.00    +0.000 HD
ENDBRANCH  11  24
TORSDOF 5
ENDMDL
MODEL 7
REMARK VINA RESULT:      -6.6      2.312      6.754
REMARK  Name = 
REMARK  5 active torsions:
REMARK  status: ('A' for Active; 'I' for Inactive)
REMARK    1  A    between atoms: O_1  and  C_2
REMARK    2  A    between atoms: C_5  and  C_8
REMARK    3  A    between atoms: C_9  and  O_10
REMARK    4  A    between atoms: C_17  and  O_18
REMARK    5  A    between atoms: C_20  and  O_21
REMARK                            x       y       z     vdW  Elec       q    Type
REMARK                         _______ _______ _______ _____ _____    ______ ____
ROOT
ATOM      1  C   UNL     1       8.373  -1.376  24.774  0.00  0.00    +0.000 A 
ATOM      2  C   UNL     1       9.122  -1.396  23.654  0.00  0.00    +0.000 A 
ATOM      3  C   UNL     1       9.660  -0.057  23.368  0.00  0.00    +0.000 A 
ATOM      4  O   UNL     1      10.854   0.188  23.342  0.00  0.00    +0.000 OA
ATOM      5  C   UNL     1       8.582   0.919  23.216  0.00  0.00    +0.000 A 
ATOM      6  C   UNL     1       7.444   0.675  24.002  0.00  0.00    +0.000 A 
ATOM      7  O   UNL     1       7.432  -0.337  24.962  0.00  0.00    +0.000 OA
ATOM      8  C   UNL     1       6.292   1.412  23.743  0.00  0.00    +0.000 A 
ATOM      9  C   UNL     1       6.319   2.361  22.710  0.00  0.00    +0.000 A 
ATOM     10  C   UNL     1       7.476   2.617  21.969  0.00  0.00    +0.000 A 
ATOM     11  C   UNL     1       8.622   1.879  22.225  0.00  0.00    +0.000 A 
ENDROOT
BRANCH   1  15
ATOM     12  C   UNL     1       7.711  -4.989  26.982  0.00  0.00    +0.000 A 
ATOM     13  C   UNL     1       6.776  -3.970  27.019  0.00  0.00    +0.000 A 
ATOM     14  C   UNL     1       6.988  -2.840  26.234  0.00  0.00    +0.000 A 
ATOM     15  C   UNL     1       8.154  -2.682  25.442  0.00  0.00    +0.000 A 
ATOM     16  C   UNL     1       9.035  -3.759  25.360  0.00  0.00    +0.000 A 
ATOM     17  C   UNL     1       8.817  -4.907  26.137  0.00  0.00    +0.000 A 
BRANCH  12  18
ATOM     18  O   UNL     1       7.579  -6.090  27.774  0.00  0.00    +0.000 OA
ATOM     19  H   UNL     1       8.068  -6.827  27.366  0.00  0.00    +0.000 HD
ENDBRANCH  12  18
ENDBRANCH   1  15
BRANCH   2  20
ATOM     20  O   UNL     1       8.643  -2.120  22.551  0.00  0.00    +0.000 OA
ATOM     21  H   UNL     1       8.059  -1.517  22.049  0.00  0.00    +0.000 HD
ENDBRANCH   2  20
BRANCH   9  22
ATOM     22  O   UNL     1       5.202   3.057  22.345  0.00  0.00    +0.000 OA
ATOM     23  H   UNL     1       4.456   2.442  22.258  0.00  0.00    +0.000 HD
ENDBRANCH   9  22
BRANCH  11  24
ATOM     24  O   UNL     1       9.737   2.040  21.459  0.00  0.00    +0.000 OA
ATOM     25  H   UNL     1      10.530   1.918  21.999  0.00  0.00    +0.000 HD
ENDBRANCH  11  24
TORSDOF 5
ENDMDL
MODEL 8
REMARK VINA RESULT:      -6.6      2.307      6.985
REMARK  Name = 
REMARK  5 active torsions:
REMARK  status: ('A' for Active; 'I' for Inactive)
REMARK    1  A    between atoms: O_1  and  C_2
REMARK    2  A    between atoms: C_5  and  C_8
REMARK    3  A    between atoms: C_9  and  O_10
REMARK    4  A    between atoms: C_17  and  O_18
REMARK    5  A    between atoms: C_20  and  O_21
REMARK                            x       y       z     vdW  Elec       q    Type
REMARK                         _______ _______ _______ _____ _____    ______ ____
ROOT
ATOM      1  C   UNL     1       8.646  -1.858  24.394  0.00  0.00    +0.000 A 
ATOM      2  C   UNL     1       8.088  -1.765  23.172  0.00  0.00    +0.000 A 
ATOM      3  C   UNL     1       8.842  -0.824  22.329  0.00  0.00    +0.000 A 
ATOM      4  O   UNL     1       9.401  -1.156  21.297  0.00  0.00    +0.000 OA
ATOM      5  C   UNL     1       8.895   0.502  22.943  0.00  0.00    +0.000 A 
ATOM      6  C   UNL     1       8.914   0.506  24.347  0.00  0.00    +0.000 A 
ATOM      7  O   UNL     1       9.033  -0.679  25.072  0.00  0.00    +0.000 OA
ATOM      8  C   UNL     1       8.724   1.718  25.006  0.00  0.00    +0.000 A 
ATOM      9  C   UNL     1       8.519   2.876  24.240  0.00  0.00    +0.000 A 
ATOM     10  C   UNL     1       8.548   2.854  22.843  0.00  0.00    +0.000 A 
ATOM     11  C   UNL     1       8.733   1.645  22.187  0.00  0.00    +0.000 A 
ENDROOT
BRANCH   1  15
ATOM     12  C   UNL     1       7.726  -5.185  26.934  0.00  0.00    +0.000 A 
ATOM     13  C   UNL     1       7.041  -3.991  27.077  0.00  0.00    +0.000 A 
ATOM     14  C   UNL     1       7.315  -2.955  26.189  0.00  0.00    +0.000 A 
ATOM     15  C   UNL     1       8.307  -3.069  25.181  0.00  0.00    +0.000 A 
ATOM     16  C   UNL     1       8.918  -4.309  25.009  0.00  0.00    +0.000 A 
ATOM     17  C   UNL     1       8.634  -5.363  25.891  0.00  0.00    +0.000 A 
BRANCH  12  18
ATOM     18  O   UNL     1       7.536  -6.211  27.811  0.00  0.00    +0.000 OA
ATOM     19  H   UNL     1       7.931  -5.966  28.666  0.00  0.00    +0.000 HD
ENDBRANCH  12  18
ENDBRANCH   1  15
BRANCH   2  20
ATOM     20  O   UNL     1       6.689  -1.687  23.087  0.00  0.00    +0.000 OA
ATOM     21  H   UNL     1       6.428  -0.829  23.478  0.00  0.00    +0.000 HD
ENDBRANCH   2  20
BRANCH   9  22
ATOM     22  O   UNL     1       8.242   4.080  24.820  0.00  0.00    +0.000 OA
ATOM     23  H   UNL     1       8.399   4.789  24.176  0.00  0.00    +0.000 HD
ENDBRANCH   9  22
BRANCH  11  24
ATOM     24  O   UNL     1       8.672   1.577  20.828  0.00  0.00    +0.000 OA
ATOM     25  H   UNL     1       8.451   0.677  20.551  0.00  0.00    +0.000 HD
ENDBRANCH  11  24
TORSDOF 5
ENDMDL
MODEL 9
REMARK VINA RESULT:      -6.5      3.321      8.394
REMARK  Name = 
REMARK  5 active torsions:
REMARK  status: ('A' for Active; 'I' for Inactive)
REMARK    1  A    between atoms: O_1  and  C_2
REMARK    2  A    between atoms: C_5  and  C_8
REMARK    3  A    between atoms: C_9  and  O_10
REMARK    4  A    between atoms: C_17  and  O_18
REMARK    5  A    between atoms: C_20  and  O_21
REMARK                            x       y       z     vdW  Elec       q    Type
REMARK                         _______ _______ _______ _____ _____    ______ ____
ROOT
ATOM      1  C   UNL     1       8.886   1.494  23.518  0.00  0.00    +0.000 A 
ATOM      2  C   UNL     1       8.151   2.236  24.368  0.00  0.00    +0.000 A 
ATOM      3  C   UNL     1       8.003   3.610  23.861  0.00  0.00    +0.000 A 
ATOM      4  O   UNL     1       6.925   4.102  23.578  0.00  0.00    +0.000 OA
ATOM      5  C   UNL     1       9.310   4.239  23.666  0.00  0.00    +0.000 A 
ATOM      6  C   UNL     1      10.341   3.362  23.291  0.00  0.00    +0.000 A 
ATOM      7  O   UNL     1      10.080   2.028  22.982  0.00  0.00    +0.000 OA
ATOM      8  C   UNL     1      11.650   3.835  23.320  0.00  0.00    +0.000 A 
ATOM      9  C   UNL     1      11.880   5.159  23.722  0.00  0.00    +0.000 A 
ATOM     10  C   UNL     1      10.834   6.026  24.048  0.00  0.00    +0.000 A 
ATOM     11  C   UNL     1       9.529   5.553  24.025  0.00  0.00    +0.000 A 
ENDROOT
BRANCH   1  15
ATOM     12  C   UNL     1       8.705  -2.786  23.649  0.00  0.00    +0.000 A 
ATOM     13  C   UNL     1       9.880  -2.129  23.971  0.00  0.00    +0.000 A 
ATOM     14  C   UNL     1       9.883  -0.738  23.987  0.00  0.00    +0.000 A 
ATOM     15  C   UNL     1       8.738   0.022  23.635  0.00  0.00    +0.000 A 
ATOM     16  C   UNL     1       7.549  -0.666  23.398  0.00  0.00    +0.000 A 
ATOM     17  C   UNL     1       7.536  -2.069  23.396  0.00  0.00    +0.000 A 
BRANCH  12  18
ATOM     18  O   UNL     1       8.663  -4.146  23.563  0.00  0.00    +0.000 OA
ATOM     19  H   UNL     1       7.823  -4.456  23.944  0.00  0.00    +0.000 HD
ENDBRANCH  12  18
ENDBRANCH   1  15
BRANCH   2  20
ATOM     20  O   UNL     1       8.401   2.108  25.743  0.00  0.00    +0.000 OA
ATOM     21  H   UNL     1       9.340   1.852  25.839  0.00  0.00    +0.000 HD
ENDBRANCH   2  20
BRANCH   9  22
ATOM     22  O   UNL     1      13.143   5.661  23.854  0.00  0.00    +0.000 OA
ATOM     23  H   UNL     1      13.531   5.334  24.681  0.00  0.00    +0.000 HD
ENDBRANCH   9  22
BRANCH  11  24
ATOM     24  O   UNL     1       8.497   6.345  24.427  0.00  0.00    +0.000 OA
ATOM     25  H   UNL     1       8.539   6.484  25.384  0.00  0.00    +0.000 HD
ENDBRANCH  11  24
TORSDOF 5
ENDMDL
