MODEL 1
REMARK VINA RESULT:      -7.3      0.000      0.000
REMARK  Name = 
REMARK  11 active torsions:
REMARK  status: ('A' for Active; 'I' for Inactive)
REMARK    1  A    between atoms: O_1  and  C_2
REMARK    2  A    between atoms: C_4  and  O_5
REMARK    3  A    between atoms: C_4  and  C_23
REMARK    4  A    between atoms: C_7  and  O_8
REMARK    5  A    between atoms: O_8  and  C_9
REMARK    6  A    between atoms: C_9  and  C_11
REMARK    7  A    between atoms: C_12  and  C_13
REMARK    8  A    between atoms: C_15  and  O_16
REMARK    9  A    between atoms: C_17  and  O_18
REMARK   10  A    between atoms: C_21  and  O_22
REMARK   11  A    between atoms: C_23  and  O_24
REMARK                            x       y       z     vdW  Elec       q    Type
REMARK                         _______ _______ _______ _____ _____    ______ ____
ROOT
ATOM      1  C   UNL     1       4.164  -6.655  25.011  0.00  0.00    +0.000 C 
ATOM      2  C   UNL     1       4.963  -6.659  26.310  0.00  0.00    +0.000 C 
ATOM      3  C   UNL     1       5.775  -5.366  26.490  0.00  0.00    +0.000 C 
ATOM      4  C   UNL     1       6.657  -5.112  25.264  0.00  0.00    +0.000 C 
ATOM      5  C   UNL     1       5.841  -5.057  23.964  0.00  0.00    +0.000 C 
ATOM      6  C   UNL     1       5.048  -6.367  23.781  0.00  0.00    +0.000 C 
ENDROOT
BRANCH   3   7
ATOM      7  O   UNL     1       4.898  -4.248  26.707  0.00  0.00    +0.000 OA
ATOM      8  H   UNL     1       5.381  -3.442  26.425  0.00  0.00    +0.000 HD
ENDBRANCH   3   7
BRANCH   1   9
ATOM      9  O   UNL     1       3.160  -5.628  25.116  0.00  0.00    +0.000 OA
ATOM     10  H   UNL     1       2.353  -6.061  25.461  0.00  0.00    +0.000 HD
ENDBRANCH   1   9
BRANCH   6  11
ATOM     11  O   UNL     1       4.205  -6.287  22.623  0.00  0.00    +0.000 OA
ATOM     12  H   UNL     1       3.901  -7.195  22.436  0.00  0.00    +0.000 HD
ENDBRANCH   6  11
BRANCH   3  13
ATOM     13  C   UNL     1       6.645  -5.525  27.753  0.00  0.00    +0.000 C 
ATOM     14  O   UNL     1       6.244  -5.333  28.894  0.00  0.00    +0.000 OA
BRANCH  13  15
ATOM     15  O   UNL     1       7.929  -5.872  27.492  0.00  0.00    +0.000 OA
ATOM     16  H   UNL     1       8.159  -6.690  27.989  0.00  0.00    +0.000 HD
ENDBRANCH  13  15
ENDBRANCH   3  13
BRANCH   5  17
ATOM     17  O   UNL     1       6.739  -4.873  22.850  0.00  0.00    +0.000 OA
BRANCH  17  18
ATOM     18  C   UNL     1       6.396  -3.854  22.019  0.00  0.00    +0.000 C 
ATOM     19  O   UNL     1       5.672  -3.951  21.036  0.00  0.00    +0.000 OA
BRANCH  18  20
ATOM     20  C   UNL     1       7.015  -2.602  22.483  0.00  0.00    +0.000 C 
ATOM     21  C   UNL     1       8.314  -2.372  22.221  0.00  0.00    +0.000 C 
BRANCH  21  22
ATOM     22  C   UNL     1       9.048  -1.180  22.671  0.00  0.00    +0.000 A 
ATOM     23  C   UNL     1       9.186  -0.084  21.801  0.00  0.00    +0.000 A 
ATOM     24  C   UNL     1       9.859   1.056  22.231  0.00  0.00    +0.000 A 
ATOM     25  C   UNL     1      10.383   1.120  23.520  0.00  0.00    +0.000 A 
ATOM     26  C   UNL     1      10.247   0.059  24.395  0.00  0.00    +0.000 A 
ATOM     27  C   UNL     1       9.574  -1.090  23.971  0.00  0.00    +0.000 A 
BRANCH  24  28
ATOM     28  O   UNL     1      10.028   2.149  21.426  0.00  0.00    +0.000 OA
ATOM     29  H   UNL     1       9.202   2.298  20.935  0.00  0.00    +0.000 HD
ENDBRANCH  24  28
BRANCH  25  30
ATOM     30  O   UNL     1      11.032   2.245  23.939  0.00  0.00    +0.000 OA
ATOM     31  H   UNL     1      11.332   2.676  23.116  0.00  0.00    +0.000 HD
ENDBRANCH  25  30
ENDBRANCH  21  22
ENDBRANCH  18  20
ENDBRANCH  17  18
ENDBRANCH   5  17
TORSDOF 11
ENDMDL
MODEL 2
REMARK VINA RESULT:      -7.0      1.592      3.725
REMARK  Name = 
REMARK  11 active torsions:
REMARK  status: ('A' for Active; 'I' for Inactive)
REMARK    1  A    between atoms: O_1  and  C_2
REMARK    2  A    between atoms: C_4  and  O_5
REMARK    3  A    between atoms: C_4  and  C_23
REMARK    4  A    between atoms: C_7  and  O_8
REMARK    5  A    between atoms: O_8  and  C_9
REMARK    6  A    between atoms: C_9  and  C_11
REMARK    7  A    between atoms: C_12  and  C_13
REMARK    8  A    between atoms: C_15  and  O_16
REMARK    9  A    between atoms: C_17  and  O_18
REMARK   10  A    between atoms: C_21  and  O_22
REMARK   11  A    between atoms: C_23  and  O_24
REMARK                            x       y       z     vdW  Elec       q    Type
REMARK                         _______ _______ _______ _____ _____    ______ ____
ROOT
ATOM      1  C   UNL     1       4.420  -6.132  24.399  0.00  0.00    +0.000 C 
ATOM      2  C   UNL     1       4.464  -5.518  23.003  0.00  0.00    +0.000 C 
ATOM      3  C   UNL     1       5.894  -5.467  22.442  0.00  0.00    +0.000 C 
ATOM      4  C   UNL     1       6.828  -4.751  23.422  0.00  0.00    +0.000 C 
ATOM      5  C   UNL     1       6.820  -5.405  24.813  0.00  0.00    +0.000 C 
ATOM      6  C   UNL     1       5.384  -5.432  25.376  0.00  0.00    +0.000 C 
ENDROOT
BRANCH   3   7
ATOM      7  O   UNL     1       6.378  -6.793  22.177  0.00  0.00    +0.000 OA
ATOM      8  H   UNL     1       6.214  -7.328  22.984  0.00  0.00    +0.000 HD
ENDBRANCH   3   7
BRANCH   1   9
ATOM      9  O   UNL     1       4.796  -7.517  24.282  0.00  0.00    +0.000 OA
ATOM     10  H   UNL     1       4.869  -7.707  23.325  0.00  0.00    +0.000 HD
ENDBRANCH   1   9
BRANCH   6  11
ATOM     11  O   UNL     1       5.350  -6.129  26.629  0.00  0.00    +0.000 OA
ATOM     12  H   UNL     1       4.463  -6.529  26.701  0.00  0.00    +0.000 HD
ENDBRANCH   6  11
BRANCH   3  13
ATOM     13  C   UNL     1       5.848  -4.712  21.098  0.00  0.00    +0.000 C 
ATOM     14  O   UNL     1       5.667  -3.506  20.992  0.00  0.00    +0.000 OA
BRANCH  13  15
ATOM     15  O   UNL     1       5.995  -5.514  20.015  0.00  0.00    +0.000 OA
ATOM     16  H   UNL     1       5.126  -5.917  19.782  0.00  0.00    +0.000 HD
ENDBRANCH  13  15
ENDBRANCH   3  13
BRANCH   5  17
ATOM     17  O   UNL     1       7.674  -4.647  25.695  0.00  0.00    +0.000 OA
BRANCH  17  18
ATOM     18  C   UNL     1       8.898  -4.362  25.178  0.00  0.00    +0.000 C 
ATOM     19  O   UNL     1       9.759  -5.187  24.894  0.00  0.00    +0.000 OA
BRANCH  18  20
ATOM     20  C   UNL     1       9.037  -2.909  24.994  0.00  0.00    +0.000 C 
ATOM     21  C   UNL     1       9.607  -2.438  23.871  0.00  0.00    +0.000 C 
BRANCH  21  22
ATOM     22  C   UNL     1       9.837  -1.011  23.598  0.00  0.00    +0.000 A 
ATOM     23  C   UNL     1       9.358  -0.451  22.400  0.00  0.00    +0.000 A 
ATOM     24  C   UNL     1       9.552   0.904  22.148  0.00  0.00    +0.000 A 
ATOM     25  C   UNL     1      10.205   1.707  23.080  0.00  0.00    +0.000 A 
ATOM     26  C   UNL     1      10.671   1.179  24.269  0.00  0.00    +0.000 A 
ATOM     27  C   UNL     1      10.481  -0.181  24.529  0.00  0.00    +0.000 A 
BRANCH  24  28
ATOM     28  O   UNL     1       9.113   1.500  20.998  0.00  0.00    +0.000 OA
ATOM     29  H   UNL     1       9.687   2.263  20.810  0.00  0.00    +0.000 HD
ENDBRANCH  24  28
BRANCH  25  30
ATOM     30  O   UNL     1      10.381   3.038  22.832  0.00  0.00    +0.000 OA
ATOM     31  H   UNL     1       9.518   3.339  22.488  0.00  0.00    +0.000 HD
ENDBRANCH  25  30
ENDBRANCH  21  22
ENDBRANCH  18  20
ENDBRANCH  17  18
ENDBRANCH   5  17
TORSDOF 11
ENDMDL
MODEL 3
REMARK VINA RESULT:      -7.0      1.501      3.497
REMARK  Name = 
REMARK  11 active torsions:
REMARK  status: ('A' for Active; 'I' for Inactive)
REMARK    1  A    between atoms: O_1  and  C_2
REMARK    2  A    between atoms: C_4  and  O_5
REMARK    3  A    between atoms: C_4  and  C_23
REMARK    4  A    between atoms: C_7  and  O_8
REMARK    5  A    between atoms: O_8  and  C_9
REMARK    6  A    between atoms: C_9  and  C_11
REMARK    7  A    between atoms: C_12  and  C_13
REMARK    8  A    between atoms: C_15  and  O_16
REMARK    9  A    between atoms: C_17  and  O_18
REMARK   10  A    between atoms: C_21  and  O_22
REMARK   11  A    between atoms: C_23  and  O_24
REMARK                            x       y       z     vdW  Elec       q    Type
REMARK                         _______ _______ _______ _____ _____    ______ ____
ROOT
ATOM      1  C   UNL     1       4.724  -6.072  27.202  0.00  0.00    +0.000 C 
ATOM      2  C   UNL     1       3.795  -5.695  26.053  0.00  0.00    +0.000 C 
ATOM      3  C   UNL     1       4.482  -5.844  24.686  0.00  0.00    +0.000 C 
ATOM      4  C   UNL     1       5.794  -5.054  24.656  0.00  0.00    +0.000 C 
ATOM      5  C   UNL     1       6.748  -5.473  25.786  0.00  0.00    +0.000 C 
ATOM      6  C   UNL     1       6.057  -5.299  27.154  0.00  0.00    +0.000 C 
ENDROOT
BRANCH   3   7
ATOM      7  O   UNL     1       4.733  -7.229  24.397  0.00  0.00    +0.000 OA
ATOM      8  H   UNL     1       5.564  -7.270  23.876  0.00  0.00    +0.000 HD
ENDBRANCH   3   7
BRANCH   1   9
ATOM      9  O   UNL     1       4.996  -7.482  27.103  0.00  0.00    +0.000 OA
ATOM     10  H   UNL     1       5.310  -7.769  27.984  0.00  0.00    +0.000 HD
ENDBRANCH   1   9
BRANCH   6  11
ATOM     11  O   UNL     1       6.902  -5.782  28.208  0.00  0.00    +0.000 OA
ATOM     12  H   UNL     1       6.509  -5.469  29.045  0.00  0.00    +0.000 HD
ENDBRANCH   6  11
BRANCH   3  13
ATOM     13  C   UNL     1       3.514  -5.314  23.609  0.00  0.00    +0.000 C 
ATOM     14  O   UNL     1       2.307  -5.520  23.608  0.00  0.00    +0.000 OA
BRANCH  13  15
ATOM     15  O   UNL     1       4.124  -4.612  22.623  0.00  0.00    +0.000 OA
ATOM     16  H   UNL     1       4.601  -3.842  23.011  0.00  0.00    +0.000 HD
ENDBRANCH  13  15
ENDBRANCH   3  13
BRANCH   5  17
ATOM     17  O   UNL     1       7.933  -4.651  25.732  0.00  0.00    +0.000 OA
BRANCH  17  18
ATOM     18  C   UNL     1       8.683  -4.827  24.612  0.00  0.00    +0.000 C 
ATOM     19  O   UNL     1       9.249  -5.865  24.292  0.00  0.00    +0.000 OA
BRANCH  18  20
ATOM     20  C   UNL     1       8.704  -3.583  23.826  0.00  0.00    +0.000 C 
ATOM     21  C   UNL     1       9.627  -2.645  24.102  0.00  0.00    +0.000 C 
BRANCH  21  22
ATOM     22  C   UNL     1       9.717  -1.349  23.414  0.00  0.00    +0.000 A 
ATOM     23  C   UNL     1      10.267  -0.245  24.089  0.00  0.00    +0.000 A 
ATOM     24  C   UNL     1      10.376   0.978  23.433  0.00  0.00    +0.000 A 
ATOM     25  C   UNL     1       9.956   1.109  22.113  0.00  0.00    +0.000 A 
ATOM     26  C   UNL     1       9.424   0.034  21.427  0.00  0.00    +0.000 A 
ATOM     27  C   UNL     1       9.310  -1.198  22.078  0.00  0.00    +0.000 A 
BRANCH  24  28
ATOM     28  O   UNL     1      10.899   2.086  24.042  0.00  0.00    +0.000 OA
ATOM     29  H   UNL     1      11.857   1.954  24.149  0.00  0.00    +0.000 HD
ENDBRANCH  24  28
BRANCH  25  30
ATOM     30  O   UNL     1      10.076   2.309  21.472  0.00  0.00    +0.000 OA
ATOM     31  H   UNL     1      10.519   2.092  20.629  0.00  0.00    +0.000 HD
ENDBRANCH  25  30
ENDBRANCH  21  22
ENDBRANCH  18  20
ENDBRANCH  17  18
ENDBRANCH   5  17
TORSDOF 11
ENDMDL
MODEL 4
REMARK VINA RESULT:      -6.8      2.206      8.385
REMARK  Name = 
REMARK  11 active torsions:
REMARK  status: ('A' for Active; 'I' for Inactive)
REMARK    1  A    between atoms: O_1  and  C_2
REMARK    2  A    between atoms: C_4  and  O_5
REMARK    3  A    between atoms: C_4  and  C_23
REMARK    4  A    between atoms: C_7  and  O_8
REMARK    5  A    between atoms: O_8  and  C_9
REMARK    6  A    between atoms: C_9  and  C_11
REMARK    7  A    between atoms: C_12  and  C_13
REMARK    8  A    between atoms: C_15  and  O_16
REMARK    9  A    between atoms: C_17  and  O_18
REMARK   10  A    between atoms: C_21  and  O_22
REMARK   11  A    between atoms: C_23  and  O_24
REMARK                            x       y       z     vdW  Elec       q    Type
REMARK                         _______ _______ _______ _____ _____    ______ ____
ROOT
ATOM      1  C   UNL     1       7.677   1.866  22.412  0.00  0.00    +0.000 C 
ATOM      2  C   UNL     1       8.545   3.037  22.861  0.00  0.00    +0.000 C 
ATOM      3  C   UNL     1      10.034   2.659  22.925  0.00  0.00    +0.000 C 
ATOM      4  C   UNL     1      10.235   1.418  23.799  0.00  0.00    +0.000 C 
ATOM      5  C   UNL     1       9.398   0.225  23.312  0.00  0.00    +0.000 C 
ATOM      6  C   UNL     1       7.904   0.607  23.273  0.00  0.00    +0.000 C 
ENDROOT
BRANCH   3   7
ATOM      7  O   UNL     1      10.549   2.422  21.604  0.00  0.00    +0.000 OA
ATOM      8  H   UNL     1       9.784   2.431  20.989  0.00  0.00    +0.000 HD
ENDBRANCH   3   7
BRANCH   1   9
ATOM      9  O   UNL     1       8.017   1.566  21.046  0.00  0.00    +0.000 OA
ATOM     10  H   UNL     1       7.905   2.396  20.541  0.00  0.00    +0.000 HD
ENDBRANCH   1   9
BRANCH   6  11
ATOM     11  O   UNL     1       7.126  -0.466  22.725  0.00  0.00    +0.000 OA
ATOM     12  H   UNL     1       7.516  -0.677  21.855  0.00  0.00    +0.000 HD
ENDBRANCH   6  11
BRANCH   3  13
ATOM     13  C   UNL     1      10.802   3.859  23.514  0.00  0.00    +0.000 C 
ATOM     14  O   UNL     1      12.017   4.000  23.444  0.00  0.00    +0.000 OA
BRANCH  13  15
ATOM     15  O   UNL     1      10.012   4.751  24.160  0.00  0.00    +0.000 OA
ATOM     16  H   UNL     1       9.539   5.311  23.502  0.00  0.00    +0.000 HD
ENDBRANCH  13  15
ENDBRANCH   3  13
BRANCH   5  17
ATOM     17  O   UNL     1       9.591  -0.887  24.212  0.00  0.00    +0.000 OA
BRANCH  17  18
ATOM     18  C   UNL     1       9.932  -2.049  23.597  0.00  0.00    +0.000 C 
ATOM     19  O   UNL     1      10.669  -2.149  22.623  0.00  0.00    +0.000 OA
BRANCH  18  20
ATOM     20  C   UNL     1       9.293  -3.183  24.283  0.00  0.00    +0.000 C 
ATOM     21  C   UNL     1       7.954  -3.216  24.395  0.00  0.00    +0.000 C 
BRANCH  21  22
ATOM     22  C   UNL     1       7.210  -4.274  25.096  0.00  0.00    +0.000 A 
ATOM     23  C   UNL     1       7.660  -4.718  26.352  0.00  0.00    +0.000 A 
ATOM     24  C   UNL     1       6.946  -5.702  27.029  0.00  0.00    +0.000 A 
ATOM     25  C   UNL     1       5.785  -6.237  26.477  0.00  0.00    +0.000 A 
ATOM     26  C   UNL     1       5.319  -5.805  25.250  0.00  0.00    +0.000 A 
ATOM     27  C   UNL     1       6.030  -4.818  24.562  0.00  0.00    +0.000 A 
BRANCH  24  28
ATOM     28  O   UNL     1       7.340  -6.176  28.251  0.00  0.00    +0.000 OA
ATOM     29  H   UNL     1       7.020  -7.090  28.343  0.00  0.00    +0.000 HD
ENDBRANCH  24  28
BRANCH  25  30
ATOM     30  O   UNL     1       5.084  -7.194  27.152  0.00  0.00    +0.000 OA
ATOM     31  H   UNL     1       5.059  -6.873  28.074  0.00  0.00    +0.000 HD
ENDBRANCH  25  30
ENDBRANCH  21  22
ENDBRANCH  18  20
ENDBRANCH  17  18
ENDBRANCH   5  17
TORSDOF 11
ENDMDL
MODEL 5
REMARK VINA RESULT:      -6.8      1.597      2.528
REMARK  Name = 
REMARK  11 active torsions:
REMARK  status: ('A' for Active; 'I' for Inactive)
REMARK    1  A    between atoms: O_1  and  C_2
REMARK    2  A    between atoms: C_4  and  O_5
REMARK    3  A    between atoms: C_4  and  C_23
REMARK    4  A    between atoms: C_7  and  O_8
REMARK    5  A    between atoms: O_8  and  C_9
REMARK    6  A    between atoms: C_9  and  C_11
REMARK    7  A    between atoms: C_12  and  C_13
REMARK    8  A    between atoms: C_15  and  O_16
REMARK    9  A    between atoms: C_17  and  O_18
REMARK   10  A    between atoms: C_21  and  O_22
REMARK   11  A    between atoms: C_23  and  O_24
REMARK                            x       y       z     vdW  Elec       q    Type
REMARK                         _______ _______ _______ _____ _____    ______ ____
ROOT
ATOM      1  C   UNL     1       5.132  -5.801  22.755  0.00  0.00    +0.000 C 
ATOM      2  C   UNL     1       4.582  -6.343  24.071  0.00  0.00    +0.000 C 
ATOM      3  C   UNL     1       5.134  -5.578  25.284  0.00  0.00    +0.000 C 
ATOM      4  C   UNL     1       6.666  -5.563  25.256  0.00  0.00    +0.000 C 
ATOM      5  C   UNL     1       7.215  -4.968  23.950  0.00  0.00    +0.000 C 
ATOM      6  C   UNL     1       6.672  -5.756  22.740  0.00  0.00    +0.000 C 
ENDROOT
BRANCH   3   7
ATOM      7  O   UNL     1       4.627  -4.234  25.304  0.00  0.00    +0.000 OA
ATOM      8  H   UNL     1       5.276  -3.672  24.826  0.00  0.00    +0.000 HD
ENDBRANCH   3   7
BRANCH   1   9
ATOM      9  O   UNL     1       4.623  -4.466  22.584  0.00  0.00    +0.000 OA
ATOM     10  H   UNL     1       4.005  -4.497  21.826  0.00  0.00    +0.000 HD
ENDBRANCH   1   9
BRANCH   6  11
ATOM     11  O   UNL     1       7.099  -5.148  21.513  0.00  0.00    +0.000 OA
ATOM     12  H   UNL     1       7.788  -5.729  21.139  0.00  0.00    +0.000 HD
ENDBRANCH   6  11
BRANCH   3  13
ATOM     13  C   UNL     1       4.629  -6.284  26.559  0.00  0.00    +0.000 C 
ATOM     14  O   UNL     1       3.474  -6.230  26.963  0.00  0.00    +0.000 OA
BRANCH  13  15
ATOM     15  O   UNL     1       5.595  -6.957  27.230  0.00  0.00    +0.000 OA
ATOM     16  H   UNL     1       5.579  -7.907  26.967  0.00  0.00    +0.000 HD
ENDBRANCH  13  15
ENDBRANCH   3  13
BRANCH   5  17
ATOM     17  O   UNL     1       8.657  -5.039  23.969  0.00  0.00    +0.000 OA
BRANCH  17  18
ATOM     18  C   UNL     1       9.232  -4.391  25.017  0.00  0.00    +0.000 C 
ATOM     19  O   UNL     1       9.730  -4.930  25.998  0.00  0.00    +0.000 OA
BRANCH  18  20
ATOM     20  C   UNL     1       9.183  -2.938  24.792  0.00  0.00    +0.000 C 
ATOM     21  C   UNL     1       9.878  -2.404  23.773  0.00  0.00    +0.000 C 
BRANCH  21  22
ATOM     22  C   UNL     1       9.937  -0.964  23.480  0.00  0.00    +0.000 A 
ATOM     23  C   UNL     1       9.385  -0.479  22.281  0.00  0.00    +0.000 A 
ATOM     24  C   UNL     1       9.418   0.886  22.010  0.00  0.00    +0.000 A 
ATOM     25  C   UNL     1       9.983   1.771  22.924  0.00  0.00    +0.000 A 
ATOM     26  C   UNL     1      10.519   1.317  24.114  0.00  0.00    +0.000 A 
ATOM     27  C   UNL     1      10.492  -0.052  24.393  0.00  0.00    +0.000 A 
BRANCH  24  28
ATOM     28  O   UNL     1       8.900   1.412  20.859  0.00  0.00    +0.000 OA
ATOM     29  H   UNL     1       9.161   0.841  20.116  0.00  0.00    +0.000 HD
ENDBRANCH  24  28
BRANCH  25  30
ATOM     30  O   UNL     1      10.001   3.110  22.658  0.00  0.00    +0.000 OA
ATOM     31  H   UNL     1       9.065   3.343  22.509  0.00  0.00    +0.000 HD
ENDBRANCH  25  30
ENDBRANCH  21  22
ENDBRANCH  18  20
ENDBRANCH  17  18
ENDBRANCH   5  17
TORSDOF 11
ENDMDL
MODEL 6
REMARK VINA RESULT:      -6.7      2.401      8.205
REMARK  Name = 
REMARK  11 active torsions:
REMARK  status: ('A' for Active; 'I' for Inactive)
REMARK    1  A    between atoms: O_1  and  C_2
REMARK    2  A    between atoms: C_4  and  O_5
REMARK    3  A    between atoms: C_4  and  C_23
REMARK    4  A    between atoms: C_7  and  O_8
REMARK    5  A    between atoms: O_8  and  C_9
REMARK    6  A    between atoms: C_9  and  C_11
REMARK    7  A    between atoms: C_12  and  C_13
REMARK    8  A    between atoms: C_15  and  O_16
REMARK    9  A    between atoms: C_17  and  O_18
REMARK   10  A    between atoms: C_21  and  O_22
REMARK   11  A    between atoms: C_23  and  O_24
REMARK                            x       y       z     vdW  Elec       q    Type
REMARK                         _______ _______ _______ _____ _____    ______ ____
ROOT
ATOM      1  C   UNL     1       9.636   0.712  21.666  0.00  0.00    +0.000 C 
ATOM      2  C   UNL     1       8.371   1.559  21.770  0.00  0.00    +0.000 C 
ATOM      3  C   UNL     1       7.533   1.193  23.005  0.00  0.00    +0.000 C 
ATOM      4  C   UNL     1       7.231  -0.309  23.021  0.00  0.00    +0.000 C 
ATOM      5  C   UNL     1       8.510  -1.158  22.969  0.00  0.00    +0.000 C 
ATOM      6  C   UNL     1       9.333  -0.798  21.715  0.00  0.00    +0.000 C 
ENDROOT
BRANCH   3   7
ATOM      7  O   UNL     1       8.220   1.571  24.209  0.00  0.00    +0.000 OA
ATOM      8  H   UNL     1       9.071   1.081  24.223  0.00  0.00    +0.000 HD
ENDBRANCH   3   7
BRANCH   1   9
ATOM      9  O   UNL     1      10.486   1.055  22.776  0.00  0.00    +0.000 OA
ATOM     10  H   UNL     1      10.075   0.667  23.574  0.00  0.00    +0.000 HD
ENDBRANCH   1   9
BRANCH   6  11
ATOM     11  O   UNL     1      10.577  -1.513  21.709  0.00  0.00    +0.000 OA
ATOM     12  H   UNL     1      10.670  -1.918  22.593  0.00  0.00    +0.000 HD
ENDBRANCH   6  11
BRANCH   3  13
ATOM     13  C   UNL     1       6.222   2.002  22.945  0.00  0.00    +0.000 C 
ATOM     14  O   UNL     1       6.090   3.052  22.327  0.00  0.00    +0.000 OA
BRANCH  13  15
ATOM     15  O   UNL     1       5.213   1.465  23.673  0.00  0.00    +0.000 OA
ATOM     16  H   UNL     1       4.568   2.169  23.915  0.00  0.00    +0.000 HD
ENDBRANCH  13  15
ENDBRANCH   3  13
BRANCH   5  17
ATOM     17  O   UNL     1       8.148  -2.555  22.929  0.00  0.00    +0.000 OA
BRANCH  17  18
ATOM     18  C   UNL     1       8.745  -3.313  23.887  0.00  0.00    +0.000 C 
ATOM     19  O   UNL     1       9.950  -3.369  24.100  0.00  0.00    +0.000 OA
BRANCH  18  20
ATOM     20  C   UNL     1       7.723  -4.052  24.646  0.00  0.00    +0.000 C 
ATOM     21  C   UNL     1       6.915  -4.910  24.000  0.00  0.00    +0.000 C 
BRANCH  21  22
ATOM     22  C   UNL     1       5.833  -5.669  24.645  0.00  0.00    +0.000 A 
ATOM     23  C   UNL     1       4.946  -6.418  23.852  0.00  0.00    +0.000 A 
ATOM     24  C   UNL     1       3.936  -7.157  24.459  0.00  0.00    +0.000 A 
ATOM     25  C   UNL     1       3.807  -7.167  25.846  0.00  0.00    +0.000 A 
ATOM     26  C   UNL     1       4.676  -6.448  26.644  0.00  0.00    +0.000 A 
ATOM     27  C   UNL     1       5.693  -5.703  26.042  0.00  0.00    +0.000 A 
BRANCH  24  28
ATOM     28  O   UNL     1       3.042  -7.900  23.737  0.00  0.00    +0.000 OA
ATOM     29  H   UNL     1       3.371  -7.972  22.824  0.00  0.00    +0.000 HD
ENDBRANCH  24  28
BRANCH  25  30
ATOM     30  O   UNL     1       2.820  -7.904  26.436  0.00  0.00    +0.000 OA
ATOM     31  H   UNL     1       3.194  -8.803  26.504  0.00  0.00    +0.000 HD
ENDBRANCH  25  30
ENDBRANCH  21  22
ENDBRANCH  18  20
ENDBRANCH  17  18
ENDBRANCH   5  17
TORSDOF 11
ENDMDL
MODEL 7
REMARK VINA RESULT:      -6.7      1.856      3.140
REMARK  Name = 
REMARK  11 active torsions:
REMARK  status: ('A' for Active; 'I' for Inactive)
REMARK    1  A    between atoms: O_1  and  C_2
REMARK    2  A    between atoms: C_4  and  O_5
REMARK    3  A    between atoms: C_4  and  C_23
REMARK    4  A    between atoms: C_7  and  O_8
REMARK    5  A    between atoms: O_8  and  C_9
REMARK    6  A    between atoms: C_9  and  C_11
REMARK    7  A    between atoms: C_12  and  C_13
REMARK    8  A    between atoms: C_15  and  O_16
REMARK    9  A    between atoms: C_17  and  O_18
REMARK   10  A    between atoms: C_21  and  O_22
REMARK   11  A    between atoms: C_23  and  O_24
REMARK                            x       y       z     vdW  Elec       q    Type
REMARK                         _______ _______ _______ _____ _____    ______ ____
ROOT
ATOM      1  C   UNL     1       4.510  -4.774  23.119  0.00  0.00    +0.000 C 
ATOM      2  C   UNL     1       3.710  -4.121  24.242  0.00  0.00    +0.000 C 
ATOM      3  C   UNL     1       4.588  -3.223  25.127  0.00  0.00    +0.000 C 
ATOM      4  C   UNL     1       5.796  -4.005  25.653  0.00  0.00    +0.000 C 
ATOM      5  C   UNL     1       6.628  -4.618  24.516  0.00  0.00    +0.000 C 
ATOM      6  C   UNL     1       5.743  -5.535  23.646  0.00  0.00    +0.000 C 
ENDROOT
BRANCH   3   7
ATOM      7  O   UNL     1       5.029  -2.069  24.393  0.00  0.00    +0.000 OA
ATOM      8  H   UNL     1       5.862  -1.760  24.811  0.00  0.00    +0.000 HD
ENDBRANCH   3   7
BRANCH   1   9
ATOM      9  O   UNL     1       4.948  -3.732  22.228  0.00  0.00    +0.000 OA
ATOM     10  H   UNL     1       4.476  -3.869  21.383  0.00  0.00    +0.000 HD
ENDBRANCH   1   9
BRANCH   6  11
ATOM     11  O   UNL     1       6.486  -6.033  22.525  0.00  0.00    +0.000 OA
ATOM     12  H   UNL     1       6.552  -7.000  22.642  0.00  0.00    +0.000 HD
ENDBRANCH   6  11
BRANCH   3  13
ATOM     13  C   UNL     1       3.722  -2.723  26.301  0.00  0.00    +0.000 C 
ATOM     14  O   UNL     1       3.052  -1.698  26.274  0.00  0.00    +0.000 OA
BRANCH  13  15
ATOM     15  O   UNL     1       3.788  -3.509  27.403  0.00  0.00    +0.000 OA
ATOM     16  H   UNL     1       3.801  -4.457  27.133  0.00  0.00    +0.000 HD
ENDBRANCH  13  15
ENDBRANCH   3  13
BRANCH   5  17
ATOM     17  O   UNL     1       7.711  -5.385  25.084  0.00  0.00    +0.000 OA
BRANCH  17  18
ATOM     18  C   UNL     1       8.944  -4.864  24.854  0.00  0.00    +0.000 C 
ATOM     19  O   UNL     1      10.004  -5.355  25.224  0.00  0.00    +0.000 OA
BRANCH  18  20
ATOM     20  C   UNL     1       8.823  -3.620  24.077  0.00  0.00    +0.000 C 
ATOM     21  C   UNL     1       9.837  -2.738  24.081  0.00  0.00    +0.000 C 
BRANCH  21  22
ATOM     22  C   UNL     1       9.811  -1.446  23.379  0.00  0.00    +0.000 A 
ATOM     23  C   UNL     1      10.219  -0.283  24.056  0.00  0.00    +0.000 A 
ATOM     24  C   UNL     1      10.218   0.938  23.389  0.00  0.00    +0.000 A 
ATOM     25  C   UNL     1       9.828   1.011  22.054  0.00  0.00    +0.000 A 
ATOM     26  C   UNL     1       9.436  -0.122  21.367  0.00  0.00    +0.000 A 
ATOM     27  C   UNL     1       9.432  -1.352  22.030  0.00  0.00    +0.000 A 
BRANCH  24  28
ATOM     28  O   UNL     1      10.600   2.101  23.999  0.00  0.00    +0.000 OA
ATOM     29  H   UNL     1       9.849   2.718  23.981  0.00  0.00    +0.000 HD
ENDBRANCH  24  28
BRANCH  25  30
ATOM     30  O   UNL     1       9.840   2.210  21.402  0.00  0.00    +0.000 OA
ATOM     31  H   UNL     1       8.930   2.549  21.497  0.00  0.00    +0.000 HD
ENDBRANCH  25  30
ENDBRANCH  21  22
ENDBRANCH  18  20
ENDBRANCH  17  18
ENDBRANCH   5  17
TORSDOF 11
ENDMDL
MODEL 8
REMARK VINA RESULT:      -6.6      1.733      7.727
REMARK  Name = 
REMARK  11 active torsions:
REMARK  status: ('A' for Active; 'I' for Inactive)
REMARK    1  A    between atoms: O_1  and  C_2
REMARK    2  A    between atoms: C_4  and  O_5
REMARK    3  A    between atoms: C_4  and  C_23
REMARK    4  A    between atoms: C_7  and  O_8
REMARK    5  A    between atoms: O_8  and  C_9
REMARK    6  A    between atoms: C_9  and  C_11
REMARK    7  A    between atoms: C_12  and  C_13
REMARK    8  A    between atoms: C_15  and  O_16
REMARK    9  A    between atoms: C_17  and  O_18
REMARK   10  A    between atoms: C_21  and  O_22
REMARK   11  A    between atoms: C_23  and  O_24
REMARK                            x       y       z     vdW  Elec       q    Type
REMARK                         _______ _______ _______ _____ _____    ______ ____
ROOT
ATOM      1  C   UNL     1      10.198  -0.975  24.213  0.00  0.00    +0.000 C 
ATOM      2  C   UNL     1      10.086   0.339  23.446  0.00  0.00    +0.000 C 
ATOM      3  C   UNL     1       8.661   0.580  22.923  0.00  0.00    +0.000 C 
ATOM      4  C   UNL     1       8.184  -0.618  22.096  0.00  0.00    +0.000 C 
ATOM      5  C   UNL     1       8.250  -1.932  22.889  0.00  0.00    +0.000 C 
ATOM      6  C   UNL     1       9.688  -2.175  23.391  0.00  0.00    +0.000 C 
ENDROOT
BRANCH   3   7
ATOM      7  O   UNL     1       7.758   0.817  24.015  0.00  0.00    +0.000 OA
ATOM      8  H   UNL     1       8.208   1.430  24.636  0.00  0.00    +0.000 HD
ENDBRANCH   3   7
BRANCH   1   9
ATOM      9  O   UNL     1       9.406  -0.855  25.408  0.00  0.00    +0.000 OA
ATOM     10  H   UNL     1       9.708  -1.560  26.016  0.00  0.00    +0.000 HD
ENDBRANCH   1   9
BRANCH   6  11
ATOM     11  O   UNL     1       9.740  -3.348  24.216  0.00  0.00    +0.000 OA
ATOM     12  H   UNL     1       9.116  -3.990  23.827  0.00  0.00    +0.000 HD
ENDBRANCH   6  11
BRANCH   3  13
ATOM     13  C   UNL     1       8.684   1.855  22.055  0.00  0.00    +0.000 C 
ATOM     14  O   UNL     1       7.711   2.572  21.860  0.00  0.00    +0.000 OA
BRANCH  13  15
ATOM     15  O   UNL     1       9.888   2.106  21.485  0.00  0.00    +0.000 OA
ATOM     16  H   UNL     1      10.602   1.989  22.155  0.00  0.00    +0.000 HD
ENDBRANCH  13  15
ENDBRANCH   3  13
BRANCH   5  17
ATOM     17  O   UNL     1       7.843  -3.021  22.033  0.00  0.00    +0.000 OA
BRANCH  17  18
ATOM     18  C   UNL     1       6.535  -3.368  22.157  0.00  0.00    +0.000 C 
ATOM     19  O   UNL     1       5.693  -3.294  21.271  0.00  0.00    +0.000 OA
BRANCH  18  20
ATOM     20  C   UNL     1       6.278  -3.864  23.519  0.00  0.00    +0.000 C 
ATOM     21  C   UNL     1       5.944  -5.154  23.699  0.00  0.00    +0.000 C 
BRANCH  21  22
ATOM     22  C   UNL     1       5.622  -5.748  25.005  0.00  0.00    +0.000 A 
ATOM     23  C   UNL     1       6.404  -5.416  26.126  0.00  0.00    +0.000 A 
ATOM     24  C   UNL     1       6.090  -5.958  27.368  0.00  0.00    +0.000 A 
ATOM     25  C   UNL     1       5.000  -6.814  27.508  0.00  0.00    +0.000 A 
ATOM     26  C   UNL     1       4.212  -7.142  26.422  0.00  0.00    +0.000 A 
ATOM     27  C   UNL     1       4.521  -6.604  25.170  0.00  0.00    +0.000 A 
BRANCH  24  28
ATOM     28  O   UNL     1       6.818  -5.674  28.491  0.00  0.00    +0.000 OA
ATOM     29  H   UNL     1       6.323  -5.992  29.266  0.00  0.00    +0.000 HD
ENDBRANCH  24  28
BRANCH  25  30
ATOM     30  O   UNL     1       4.690  -7.332  28.733  0.00  0.00    +0.000 OA
ATOM     31  H   UNL     1       3.720  -7.442  28.713  0.00  0.00    +0.000 HD
ENDBRANCH  25  30
ENDBRANCH  21  22
ENDBRANCH  18  20
ENDBRANCH  17  18
ENDBRANCH   5  17
TORSDOF 11
ENDMDL
MODEL 9
REMARK VINA RESULT:      -6.5      2.448      4.548
REMARK  Name = 
REMARK  11 active torsions:
REMARK  status: ('A' for Active; 'I' for Inactive)
REMARK    1  A    between atoms: O_1  and  C_2
REMARK    2  A    between atoms: C_4  and  O_5
REMARK    3  A    between atoms: C_4  and  C_23
REMARK    4  A    between atoms: C_7  and  O_8
REMARK    5  A    between atoms: O_8  and  C_9
REMARK    6  A    between atoms: C_9  and  C_11
REMARK    7  A    between atoms: C_12  and  C_13
REMARK    8  A    between atoms: C_15  and  O_16
REMARK    9  A    between atoms: C_17  and  O_18
REMARK   10  A    between atoms: C_21  and  O_22
REMARK   11  A    between atoms: C_23  and  O_24
REMARK                            x       y       z     vdW  Elec       q    Type
REMARK                         _______ _______ _______ _____ _____    ______ ____
ROOT
ATOM      1  C   UNL     1       7.354  -5.203  25.832  0.00  0.00    +0.000 C 
ATOM      2  C   UNL     1       6.446  -5.462  24.633  0.00  0.00    +0.000 C 
ATOM      3  C   UNL     1       7.116  -5.061  23.308  0.00  0.00    +0.000 C 
ATOM      4  C   UNL     1       7.598  -3.609  23.370  0.00  0.00    +0.000 C 
ATOM      5  C   UNL     1       8.553  -3.365  24.549  0.00  0.00    +0.000 C 
ATOM      6  C   UNL     1       7.865  -3.750  25.875  0.00  0.00    +0.000 C 
ENDROOT
BRANCH   3   7
ATOM      7  O   UNL     1       8.217  -5.936  23.017  0.00  0.00    +0.000 OA
ATOM      8  H   UNL     1       8.930  -5.728  23.659  0.00  0.00    +0.000 HD
ENDBRANCH   3   7
BRANCH   1   9
ATOM      9  O   UNL     1       8.480  -6.093  25.730  0.00  0.00    +0.000 OA
ATOM     10  H   UNL     1       8.336  -6.803  26.387  0.00  0.00    +0.000 HD
ENDBRANCH   1   9
BRANCH   6  11
ATOM     11  O   UNL     1       8.781  -3.621  26.971  0.00  0.00    +0.000 OA
ATOM     12  H   UNL     1       8.733  -2.691  27.266  0.00  0.00    +0.000 HD
ENDBRANCH   6  11
BRANCH   3  13
ATOM     13  C   UNL     1       6.076  -5.233  22.182  0.00  0.00    +0.000 C 
ATOM     14  O   UNL     1       5.683  -4.321  21.464  0.00  0.00    +0.000 OA
BRANCH  13  15
ATOM     15  O   UNL     1       5.596  -6.495  22.069  0.00  0.00    +0.000 OA
ATOM     16  H   UNL     1       4.611  -6.473  22.048  0.00  0.00    +0.000 HD
ENDBRANCH  13  15
ENDBRANCH   3  13
BRANCH   5  17
ATOM     17  O   UNL     1       8.920  -1.970  24.578  0.00  0.00    +0.000 OA
BRANCH  17  18
ATOM     18  C   UNL     1       9.820  -1.610  23.626  0.00  0.00    +0.000 C 
ATOM     19  O   UNL     1      10.597  -2.369  23.059  0.00  0.00    +0.000 OA
BRANCH  18  20
ATOM     20  C   UNL     1       9.716  -0.166  23.361  0.00  0.00    +0.000 C 
ATOM     21  C   UNL     1      10.197   0.706  24.264  0.00  0.00    +0.000 C 
BRANCH  21  22
ATOM     22  C   UNL     1      10.109   2.167  24.127  0.00  0.00    +0.000 A 
ATOM     23  C   UNL     1      11.155   2.866  23.497  0.00  0.00    +0.000 A 
ATOM     24  C   UNL     1      11.066   4.246  23.344  0.00  0.00    +0.000 A 
ATOM     25  C   UNL     1       9.944   4.935  23.800  0.00  0.00    +0.000 A 
ATOM     26  C   UNL     1       8.901   4.265  24.410  0.00  0.00    +0.000 A 
ATOM     27  C   UNL     1       8.982   2.880  24.569  0.00  0.00    +0.000 A 
BRANCH  24  28
ATOM     28  O   UNL     1      12.054   4.977  22.744  0.00  0.00    +0.000 OA
ATOM     29  H   UNL     1      12.075   5.859  23.154  0.00  0.00    +0.000 HD
ENDBRANCH  24  28
BRANCH  25  30
ATOM     30  O   UNL     1       9.858   6.287  23.636  0.00  0.00    +0.000 OA
ATOM     31  H   UNL     1      10.158   6.442  22.720  0.00  0.00    +0.000 HD
ENDBRANCH  25  30
ENDBRANCH  21  22
ENDBRANCH  18  20
ENDBRANCH  17  18
ENDBRANCH   5  17
TORSDOF 11
ENDMDL
