MODEL 1
REMARK VINA RESULT:      -5.2      0.000      0.000
REMARK  Name = 
REMARK  3 active torsions:
REMARK  status: ('A' for Active; 'I' for Inactive)
REMARK    1  A    between atoms: C_1  and  N_2
REMARK    2  A    between atoms: N_9  and  C_10
REMARK    3  A    between atoms: N_13  and  C_14
REMARK                            x       y       z     vdW  Elec       q    Type
REMARK                         _______ _______ _______ _____ _____    ______ ____
ROOT
ATOM      1  C   UNL     1       6.445  -4.792  21.517  0.00  0.00    +0.000 C 
ATOM      2  N   UNL     1       5.864  -5.268  22.747  0.00  0.00    +0.000 N 
ATOM      3  C   UNL     1       4.613  -5.806  22.901  0.00  0.00    +0.000 A 
ATOM      4  N   UNL     1       4.390  -6.170  24.148  0.00  0.00    +0.000 NA
ATOM      5  C   UNL     1       5.539  -5.848  24.807  0.00  0.00    +0.000 A 
ATOM      6  C   UNL     1       6.459  -5.287  23.975  0.00  0.00    +0.000 A 
ATOM      7  C   UNL     1       7.742  -4.858  24.409  0.00  0.00    +0.000 A 
ATOM      8  O   UNL     1       8.563  -4.350  23.650  0.00  0.00    +0.000 OA
ATOM      9  N   UNL     1       7.955  -5.077  25.771  0.00  0.00    +0.000 N 
ATOM     10  C   UNL     1       9.233  -4.690  26.333  0.00  0.00    +0.000 C 
ATOM     11  C   UNL     1       7.028  -5.653  26.665  0.00  0.00    +0.000 A 
ATOM     12  O   UNL     1       7.309  -5.801  27.859  0.00  0.00    +0.000 OA
ATOM     13  N   UNL     1       5.796  -6.043  26.143  0.00  0.00    +0.000 N 
ATOM     14  C   UNL     1       4.794  -6.652  27.000  0.00  0.00    +0.000 C 
ENDROOT
TORSDOF 0
ENDMDL
MODEL 2
REMARK VINA RESULT:      -5.0      2.026      2.427
REMARK  Name = 
REMARK  3 active torsions:
REMARK  status: ('A' for Active; 'I' for Inactive)
REMARK    1  A    between atoms: C_1  and  N_2
REMARK    2  A    between atoms: N_9  and  C_10
REMARK    3  A    between atoms: N_13  and  C_14
REMARK                            x       y       z     vdW  Elec       q    Type
REMARK                         _______ _______ _______ _____ _____    ______ ____
ROOT
ATOM      1  C   UNL     1       8.573  -1.688  21.916  0.00  0.00    +0.000 C 
ATOM      2  N   UNL     1       7.580  -2.421  22.660  0.00  0.00    +0.000 N 
ATOM      3  C   UNL     1       6.226  -2.400  22.450  0.00  0.00    +0.000 A 
ATOM      4  N   UNL     1       5.592  -3.202  23.283  0.00  0.00    +0.000 NA
ATOM      5  C   UNL     1       6.579  -3.747  24.048  0.00  0.00    +0.000 A 
ATOM      6  C   UNL     1       7.809  -3.282  23.694  0.00  0.00    +0.000 A 
ATOM      7  C   UNL     1       9.010  -3.689  24.335  0.00  0.00    +0.000 A 
ATOM      8  O   UNL     1      10.114  -3.261  24.010  0.00  0.00    +0.000 OA
ATOM      9  N   UNL     1       8.791  -4.615  25.358  0.00  0.00    +0.000 N 
ATOM     10  C   UNL     1       9.942  -5.114  26.083  0.00  0.00    +0.000 C 
ATOM     11  C   UNL     1       7.536  -5.118  25.756  0.00  0.00    +0.000 A 
ATOM     12  O   UNL     1       7.444  -5.933  26.679  0.00  0.00    +0.000 OA
ATOM     13  N   UNL     1       6.416  -4.659  25.063  0.00  0.00    +0.000 N 
ATOM     14  C   UNL     1       5.090  -5.140  25.409  0.00  0.00    +0.000 C 
ENDROOT
TORSDOF 0
ENDMDL
MODEL 3
REMARK VINA RESULT:      -5.0      1.524      2.056
REMARK  Name = 
REMARK  3 active torsions:
REMARK  status: ('A' for Active; 'I' for Inactive)
REMARK    1  A    between atoms: C_1  and  N_2
REMARK    2  A    between atoms: N_9  and  C_10
REMARK    3  A    between atoms: N_13  and  C_14
REMARK                            x       y       z     vdW  Elec       q    Type
REMARK                         _______ _______ _______ _____ _____    ______ ____
ROOT
ATOM      1  C   UNL     1       8.004  -2.521  22.271  0.00  0.00    +0.000 C 
ATOM      2  N   UNL     1       6.960  -3.479  22.532  0.00  0.00    +0.000 N 
ATOM      3  C   UNL     1       5.965  -3.853  21.668  0.00  0.00    +0.000 A 
ATOM      4  N   UNL     1       5.180  -4.771  22.197  0.00  0.00    +0.000 NA
ATOM      5  C   UNL     1       5.694  -4.982  23.441  0.00  0.00    +0.000 A 
ATOM      6  C   UNL     1       6.783  -4.199  23.678  0.00  0.00    +0.000 A 
ATOM      7  C   UNL     1       7.507  -4.222  24.900  0.00  0.00    +0.000 A 
ATOM      8  O   UNL     1       8.486  -3.509  25.104  0.00  0.00    +0.000 OA
ATOM      9  N   UNL     1       6.986  -5.132  25.822  0.00  0.00    +0.000 N 
ATOM     10  C   UNL     1       7.645  -5.255  27.106  0.00  0.00    +0.000 C 
ATOM     11  C   UNL     1       5.862  -5.958  25.616  0.00  0.00    +0.000 A 
ATOM     12  O   UNL     1       5.473  -6.730  26.498  0.00  0.00    +0.000 OA
ATOM     13  N   UNL     1       5.219  -5.864  24.382  0.00  0.00    +0.000 N 
ATOM     14  C   UNL     1       4.060  -6.690  24.092  0.00  0.00    +0.000 C 
ENDROOT
TORSDOF 0
ENDMDL
MODEL 4
REMARK VINA RESULT:      -5.0      1.622      3.529
REMARK  Name = 
REMARK  3 active torsions:
REMARK  status: ('A' for Active; 'I' for Inactive)
REMARK    1  A    between atoms: C_1  and  N_2
REMARK    2  A    between atoms: N_9  and  C_10
REMARK    3  A    between atoms: N_13  and  C_14
REMARK                            x       y       z     vdW  Elec       q    Type
REMARK                         _______ _______ _______ _____ _____    ______ ____
ROOT
ATOM      1  C   UNL     1       9.544  -3.204  24.445  0.00  0.00    +0.000 C 
ATOM      2  N   UNL     1       8.661  -3.976  25.282  0.00  0.00    +0.000 N 
ATOM      3  C   UNL     1       8.774  -4.156  26.636  0.00  0.00    +0.000 A 
ATOM      4  N   UNL     1       7.792  -4.896  27.112  0.00  0.00    +0.000 NA
ATOM      5  C   UNL     1       7.033  -5.197  26.021  0.00  0.00    +0.000 A 
ATOM      6  C   UNL     1       7.545  -4.653  24.883  0.00  0.00    +0.000 A 
ATOM      7  C   UNL     1       6.947  -4.816  23.605  0.00  0.00    +0.000 A 
ATOM      8  O   UNL     1       7.420  -4.323  22.584  0.00  0.00    +0.000 OA
ATOM      9  N   UNL     1       5.784  -5.587  23.645  0.00  0.00    +0.000 N 
ATOM     10  C   UNL     1       5.075  -5.818  22.402  0.00  0.00    +0.000 C 
ATOM     11  C   UNL     1       5.223  -6.169  24.800  0.00  0.00    +0.000 A 
ATOM     12  O   UNL     1       4.189  -6.842  24.733  0.00  0.00    +0.000 OA
ATOM     13  N   UNL     1       5.883  -5.950  26.009  0.00  0.00    +0.000 N 
ATOM     14  C   UNL     1       5.361  -6.508  27.244  0.00  0.00    +0.000 C 
ENDROOT
TORSDOF 0
ENDMDL
MODEL 5
REMARK VINA RESULT:      -5.0      2.048      3.482
REMARK  Name = 
REMARK  3 active torsions:
REMARK  status: ('A' for Active; 'I' for Inactive)
REMARK    1  A    between atoms: C_1  and  N_2
REMARK    2  A    between atoms: N_9  and  C_10
REMARK    3  A    between atoms: N_13  and  C_14
REMARK                            x       y       z     vdW  Elec       q    Type
REMARK                         _______ _______ _______ _____ _____    ______ ____
ROOT
ATOM      1  C   UNL     1       3.903  -4.760  23.380  0.00  0.00    +0.000 C 
ATOM      2  N   UNL     1       5.124  -4.906  24.132  0.00  0.00    +0.000 N 
ATOM      3  C   UNL     1       5.318  -5.721  25.217  0.00  0.00    +0.000 A 
ATOM      4  N   UNL     1       6.556  -5.647  25.665  0.00  0.00    +0.000 NA
ATOM      5  C   UNL     1       7.165  -4.751  24.837  0.00  0.00    +0.000 A 
ATOM      6  C   UNL     1       6.309  -4.274  23.891  0.00  0.00    +0.000 A 
ATOM      7  C   UNL     1       6.689  -3.326  22.904  0.00  0.00    +0.000 A 
ATOM      8  O   UNL     1       5.909  -2.900  22.057  0.00  0.00    +0.000 OA
ATOM      9  N   UNL     1       8.028  -2.943  23.008  0.00  0.00    +0.000 N 
ATOM     10  C   UNL     1       8.540  -1.984  22.050  0.00  0.00    +0.000 C 
ATOM     11  C   UNL     1       8.944  -3.411  23.973  0.00  0.00    +0.000 A 
ATOM     12  O   UNL     1      10.111  -3.006  23.987  0.00  0.00    +0.000 OA
ATOM     13  N   UNL     1       8.475  -4.343  24.899  0.00  0.00    +0.000 N 
ATOM     14  C   UNL     1       9.362  -4.878  25.916  0.00  0.00    +0.000 C 
ENDROOT
TORSDOF 0
ENDMDL
MODEL 6
REMARK VINA RESULT:      -4.9      1.881      4.435
REMARK  Name = 
REMARK  3 active torsions:
REMARK  status: ('A' for Active; 'I' for Inactive)
REMARK    1  A    between atoms: C_1  and  N_2
REMARK    2  A    between atoms: N_9  and  C_10
REMARK    3  A    between atoms: N_13  and  C_14
REMARK                            x       y       z     vdW  Elec       q    Type
REMARK                         _______ _______ _______ _____ _____    ______ ____
ROOT
ATOM      1  C   UNL     1       9.057  -4.527  26.629  0.00  0.00    +0.000 C 
ATOM      2  N   UNL     1       8.448  -4.169  25.373  0.00  0.00    +0.000 N 
ATOM      3  C   UNL     1       8.947  -3.288  24.450  0.00  0.00    +0.000 A 
ATOM      4  N   UNL     1       8.165  -3.197  23.392  0.00  0.00    +0.000 NA
ATOM      5  C   UNL     1       7.133  -4.047  23.657  0.00  0.00    +0.000 A 
ATOM      6  C   UNL     1       7.276  -4.652  24.869  0.00  0.00    +0.000 A 
ATOM      7  C   UNL     1       6.338  -5.584  25.389  0.00  0.00    +0.000 A 
ATOM      8  O   UNL     1       6.475  -6.122  26.484  0.00  0.00    +0.000 OA
ATOM      9  N   UNL     1       5.264  -5.812  24.525  0.00  0.00    +0.000 N 
ATOM     10  C   UNL     1       4.243  -6.752  24.940  0.00  0.00    +0.000 C 
ATOM     11  C   UNL     1       5.080  -5.204  23.266  0.00  0.00    +0.000 A 
ATOM     12  O   UNL     1       4.090  -5.468  22.575  0.00  0.00    +0.000 OA
ATOM     13  N   UNL     1       6.058  -4.304  22.842  0.00  0.00    +0.000 N 
ATOM     14  C   UNL     1       5.942  -3.647  21.553  0.00  0.00    +0.000 C 
ENDROOT
TORSDOF 0
ENDMDL
MODEL 7
REMARK VINA RESULT:      -4.9      1.559      3.537
REMARK  Name = 
REMARK  3 active torsions:
REMARK  status: ('A' for Active; 'I' for Inactive)
REMARK    1  A    between atoms: C_1  and  N_2
REMARK    2  A    between atoms: N_9  and  C_10
REMARK    3  A    between atoms: N_13  and  C_14
REMARK                            x       y       z     vdW  Elec       q    Type
REMARK                         _______ _______ _______ _____ _____    ______ ____
ROOT
ATOM      1  C   UNL     1       3.037  -7.059  24.761  0.00  0.00    +0.000 C 
ATOM      2  N   UNL     1       4.270  -6.619  25.362  0.00  0.00    +0.000 N 
ATOM      3  C   UNL     1       4.639  -6.779  26.672  0.00  0.00    +0.000 A 
ATOM      4  N   UNL     1       5.841  -6.287  26.903  0.00  0.00    +0.000 NA
ATOM      5  C   UNL     1       6.245  -5.796  25.698  0.00  0.00    +0.000 A 
ATOM      6  C   UNL     1       5.299  -5.978  24.735  0.00  0.00    +0.000 A 
ATOM      7  C   UNL     1       5.467  -5.555  23.389  0.00  0.00    +0.000 A 
ATOM      8  O   UNL     1       4.607  -5.723  22.529  0.00  0.00    +0.000 OA
ATOM      9  N   UNL     1       6.701  -4.941  23.164  0.00  0.00    +0.000 N 
ATOM     10  C   UNL     1       6.996  -4.473  21.825  0.00  0.00    +0.000 C 
ATOM     11  C   UNL     1       7.703  -4.732  24.133  0.00  0.00    +0.000 A 
ATOM     12  O   UNL     1       8.764  -4.171  23.837  0.00  0.00    +0.000 OA
ATOM     13  N   UNL     1       7.445  -5.184  25.427  0.00  0.00    +0.000 N 
ATOM     14  C   UNL     1       8.434  -5.014  26.477  0.00  0.00    +0.000 C 
ENDROOT
TORSDOF 0
ENDMDL
MODEL 8
REMARK VINA RESULT:      -4.9      1.591      3.451
REMARK  Name = 
REMARK  3 active torsions:
REMARK  status: ('A' for Active; 'I' for Inactive)
REMARK    1  A    between atoms: C_1  and  N_2
REMARK    2  A    between atoms: N_9  and  C_10
REMARK    3  A    between atoms: N_13  and  C_14
REMARK                            x       y       z     vdW  Elec       q    Type
REMARK                         _______ _______ _______ _____ _____    ______ ____
ROOT
ATOM      1  C   UNL     1       4.118  -5.992  25.384  0.00  0.00    +0.000 C 
ATOM      2  N   UNL     1       4.855  -5.139  24.487  0.00  0.00    +0.000 N 
ATOM      3  C   UNL     1       4.359  -4.498  23.382  0.00  0.00    +0.000 A 
ATOM      4  N   UNL     1       5.283  -3.771  22.785  0.00  0.00    +0.000 NA
ATOM      5  C   UNL     1       6.403  -3.960  23.537  0.00  0.00    +0.000 A 
ATOM      6  C   UNL     1       6.174  -4.801  24.584  0.00  0.00    +0.000 A 
ATOM      7  C   UNL     1       7.175  -5.168  25.522  0.00  0.00    +0.000 A 
ATOM      8  O   UNL     1       6.958  -5.928  26.461  0.00  0.00    +0.000 OA
ATOM      9  N   UNL     1       8.411  -4.573  25.256  0.00  0.00    +0.000 N 
ATOM     10  C   UNL     1       9.514  -4.862  26.150  0.00  0.00    +0.000 C 
ATOM     11  C   UNL     1       8.689  -3.701  24.183  0.00  0.00    +0.000 A 
ATOM     12  O   UNL     1       9.820  -3.228  24.028  0.00  0.00    +0.000 OA
ATOM     13  N   UNL     1       7.638  -3.400  23.317  0.00  0.00    +0.000 N 
ATOM     14  C   UNL     1       7.845  -2.501  22.195  0.00  0.00    +0.000 C 
ENDROOT
TORSDOF 0
ENDMDL
MODEL 9
REMARK VINA RESULT:      -4.9      2.580      4.063
REMARK  Name = 
REMARK  3 active torsions:
REMARK  status: ('A' for Active; 'I' for Inactive)
REMARK    1  A    between atoms: C_1  and  N_2
REMARK    2  A    between atoms: N_9  and  C_10
REMARK    3  A    between atoms: N_13  and  C_14
REMARK                            x       y       z     vdW  Elec       q    Type
REMARK                         _______ _______ _______ _____ _____    ______ ____
ROOT
ATOM      1  C   UNL     1       8.812  -1.288  21.734  0.00  0.00    +0.000 C 
ATOM      2  N   UNL     1       8.916  -2.258  22.795  0.00  0.00    +0.000 N 
ATOM      3  C   UNL     1      10.026  -2.517  23.555  0.00  0.00    +0.000 A 
ATOM      4  N   UNL     1       9.790  -3.445  24.461  0.00  0.00    +0.000 NA
ATOM      5  C   UNL     1       8.486  -3.789  24.264  0.00  0.00    +0.000 A 
ATOM      6  C   UNL     1       7.925  -3.083  23.244  0.00  0.00    +0.000 A 
ATOM      7  C   UNL     1       6.576  -3.249  22.831  0.00  0.00    +0.000 A 
ATOM      8  O   UNL     1       6.082  -2.609  21.907  0.00  0.00    +0.000 OA
ATOM      9  N   UNL     1       5.893  -4.207  23.583  0.00  0.00    +0.000 N 
ATOM     10  C   UNL     1       4.503  -4.462  23.263  0.00  0.00    +0.000 C 
ATOM     11  C   UNL     1       6.438  -4.960  24.644  0.00  0.00    +0.000 A 
ATOM     12  O   UNL     1       5.752  -5.791  25.248  0.00  0.00    +0.000 OA
ATOM     13  N   UNL     1       7.771  -4.722  24.976  0.00  0.00    +0.000 N 
ATOM     14  C   UNL     1       8.399  -5.452  26.064  0.00  0.00    +0.000 C 
ENDROOT
TORSDOF 0
ENDMDL
