MODEL 1
REMARK VINA RESULT:      -4.4      0.000      0.000
REMARK  Name = 
REMARK  3 active torsions:
REMARK  status: ('A' for Active; 'I' for Inactive)
REMARK    1  A    between atoms: C_1  and  C_2
REMARK    2  A    between atoms: C_2  and  C_4
REMARK    3  A    between atoms: C_7  and  C_8
REMARK                            x       y       z     vdW  Elec       q    Type
REMARK                         _______ _______ _______ _____ _____    ______ ____
ROOT
ATOM      1  C   UNL     1       9.791   1.255  21.941  0.00  0.00    +0.000 C 
ATOM      2  C   UNL     1       8.363   1.739  21.621  0.00  0.00    +0.000 C 
ATOM      3  C   UNL     1       7.331   1.132  22.579  0.00  0.00    +0.000 C 
ATOM      4  C   UNL     1       7.555  -0.339  22.846  0.00  0.00    +0.000 C 
ATOM      5  C   UNL     1       6.500  -1.044  23.644  0.00  0.00    +0.000 C 
ATOM      6  C   UNL     1       8.659  -0.979  22.423  0.00  0.00    +0.000 C 
ATOM      7  C   UNL     1       9.803  -0.281  21.731  0.00  0.00    +0.000 C 
ENDROOT
BRANCH   1   9
ATOM      8  C   UNL     1      10.113   3.233  23.575  0.00  0.00    +0.000 C 
ATOM      9  C   UNL     1      10.287   1.758  23.309  0.00  0.00    +0.000 C 
ATOM     10  C   UNL     1      10.860   0.988  24.250  0.00  0.00    +0.000 C 
ENDBRANCH   1   9
TORSDOF 1
ENDMDL
MODEL 2
REMARK VINA RESULT:      -4.3      1.516      2.336
REMARK  Name = 
REMARK  3 active torsions:
REMARK  status: ('A' for Active; 'I' for Inactive)
REMARK    1  A    between atoms: C_1  and  C_2
REMARK    2  A    between atoms: C_2  and  C_4
REMARK    3  A    between atoms: C_7  and  C_8
REMARK                            x       y       z     vdW  Elec       q    Type
REMARK                         _______ _______ _______ _____ _____    ______ ____
ROOT
ATOM      1  C   UNL     1      10.177   2.028  23.744  0.00  0.00    +0.000 C 
ATOM      2  C   UNL     1      10.194   1.831  22.215  0.00  0.00    +0.000 C 
ATOM      3  C   UNL     1       9.326   0.642  21.787  0.00  0.00    +0.000 C 
ATOM      4  C   UNL     1       9.492  -0.570  22.676  0.00  0.00    +0.000 C 
ATOM      5  C   UNL     1       8.802  -1.825  22.235  0.00  0.00    +0.000 C 
ATOM      6  C   UNL     1      10.193  -0.521  23.822  0.00  0.00    +0.000 C 
ATOM      7  C   UNL     1      10.794   0.750  24.368  0.00  0.00    +0.000 C 
ENDROOT
BRANCH   1   9
ATOM      8  C   UNL     1       8.171   3.655  23.622  0.00  0.00    +0.000 C 
ATOM      9  C   UNL     1       8.789   2.438  24.267  0.00  0.00    +0.000 C 
ATOM     10  C   UNL     1       8.115   1.803  25.242  0.00  0.00    +0.000 C 
ENDBRANCH   1   9
TORSDOF 1
ENDMDL
MODEL 3
REMARK VINA RESULT:      -4.2      1.712      3.486
REMARK  Name = 
REMARK  3 active torsions:
REMARK  status: ('A' for Active; 'I' for Inactive)
REMARK    1  A    between atoms: C_1  and  C_2
REMARK    2  A    between atoms: C_2  and  C_4
REMARK    3  A    between atoms: C_7  and  C_8
REMARK                            x       y       z     vdW  Elec       q    Type
REMARK                         _______ _______ _______ _____ _____    ______ ____
ROOT
ATOM      1  C   UNL     1      10.710   0.720  23.644  0.00  0.00    +0.000 C 
ATOM      2  C   UNL     1      10.286   0.121  25.000  0.00  0.00    +0.000 C 
ATOM      3  C   UNL     1       8.813   0.409  25.310  0.00  0.00    +0.000 C 
ATOM      4  C   UNL     1       8.399   1.826  24.983  0.00  0.00    +0.000 C 
ATOM      5  C   UNL     1       7.020   2.237  25.404  0.00  0.00    +0.000 C 
ATOM      6  C   UNL     1       9.209   2.668  24.318  0.00  0.00    +0.000 C 
ATOM      7  C   UNL     1      10.550   2.257  23.763  0.00  0.00    +0.000 C 
ENDROOT
BRANCH   1   9
ATOM      8  C   UNL     1      10.095  -1.453  22.385  0.00  0.00    +0.000 C 
ATOM      9  C   UNL     1       9.994   0.051  22.458  0.00  0.00    +0.000 C 
ATOM     10  C   UNL     1       9.311   0.706  21.502  0.00  0.00    +0.000 C 
ENDBRANCH   1   9
TORSDOF 1
ENDMDL
MODEL 4
REMARK VINA RESULT:      -4.2      0.917      3.820
REMARK  Name = 
REMARK  3 active torsions:
REMARK  status: ('A' for Active; 'I' for Inactive)
REMARK    1  A    between atoms: C_1  and  C_2
REMARK    2  A    between atoms: C_2  and  C_4
REMARK    3  A    between atoms: C_7  and  C_8
REMARK                            x       y       z     vdW  Elec       q    Type
REMARK                         _______ _______ _______ _____ _____    ______ ____
ROOT
ATOM      1  C   UNL     1       9.139  -0.649  22.709  0.00  0.00    +0.000 C 
ATOM      2  C   UNL     1      10.374  -0.542  23.627  0.00  0.00    +0.000 C 
ATOM      3  C   UNL     1      10.560   0.883  24.162  0.00  0.00    +0.000 C 
ATOM      4  C   UNL     1      10.342   1.949  23.112  0.00  0.00    +0.000 C 
ATOM      5  C   UNL     1      10.660   3.359  23.512  0.00  0.00    +0.000 C 
ATOM      6  C   UNL     1       9.855   1.659  21.893  0.00  0.00    +0.000 C 
ATOM      7  C   UNL     1       9.401   0.277  21.494  0.00  0.00    +0.000 C 
ENDROOT
BRANCH   1   9
ATOM      8  C   UNL     1       7.611  -1.260  24.704  0.00  0.00    +0.000 C 
ATOM      9  C   UNL     1       7.822  -0.416  23.471  0.00  0.00    +0.000 C 
ATOM     10  C   UNL     1       6.869   0.461  23.109  0.00  0.00    +0.000 C 
ENDBRANCH   1   9
TORSDOF 1
ENDMDL
MODEL 5
REMARK VINA RESULT:      -4.1      1.156      1.485
REMARK  Name = 
REMARK  3 active torsions:
REMARK  status: ('A' for Active; 'I' for Inactive)
REMARK    1  A    between atoms: C_1  and  C_2
REMARK    2  A    between atoms: C_2  and  C_4
REMARK    3  A    between atoms: C_7  and  C_8
REMARK                            x       y       z     vdW  Elec       q    Type
REMARK                         _______ _______ _______ _____ _____    ______ ____
ROOT
ATOM      1  C   UNL     1       8.918   1.438  22.566  0.00  0.00    +0.000 C 
ATOM      2  C   UNL     1       7.438   1.015  22.491  0.00  0.00    +0.000 C 
ATOM      3  C   UNL     1       7.232  -0.421  22.989  0.00  0.00    +0.000 C 
ATOM      4  C   UNL     1       8.287  -1.383  22.490  0.00  0.00    +0.000 C 
ATOM      5  C   UNL     1       8.072  -2.834  22.799  0.00  0.00    +0.000 C 
ATOM      6  C   UNL     1       9.382  -0.961  21.835  0.00  0.00    +0.000 C 
ATOM      7  C   UNL     1       9.703   0.497  21.617  0.00  0.00    +0.000 C 
ENDROOT
BRANCH   1   9
ATOM      8  C   UNL     1       8.587   2.332  24.970  0.00  0.00    +0.000 C 
ATOM      9  C   UNL     1       9.430   1.523  24.016  0.00  0.00    +0.000 C 
ATOM     10  C   UNL     1      10.557   0.945  24.469  0.00  0.00    +0.000 C 
ENDBRANCH   1   9
TORSDOF 1
ENDMDL
MODEL 6
REMARK VINA RESULT:      -4.1      1.236      2.673
REMARK  Name = 
REMARK  3 active torsions:
REMARK  status: ('A' for Active; 'I' for Inactive)
REMARK    1  A    between atoms: C_1  and  C_2
REMARK    2  A    between atoms: C_2  and  C_4
REMARK    3  A    between atoms: C_7  and  C_8
REMARK                            x       y       z     vdW  Elec       q    Type
REMARK                         _______ _______ _______ _____ _____    ______ ____
ROOT
ATOM      1  C   UNL     1       9.295  -0.496  23.037  0.00  0.00    +0.000 C 
ATOM      2  C   UNL     1       9.772   0.306  21.809  0.00  0.00    +0.000 C 
ATOM      3  C   UNL     1       9.232   1.741  21.825  0.00  0.00    +0.000 C 
ATOM      4  C   UNL     1       7.777   1.827  22.226  0.00  0.00    +0.000 C 
ATOM      5  C   UNL     1       7.129   3.174  22.113  0.00  0.00    +0.000 C 
ATOM      6  C   UNL     1       7.104   0.763  22.696  0.00  0.00    +0.000 C 
ATOM      7  C   UNL     1       7.750  -0.576  22.948  0.00  0.00    +0.000 C 
ENDROOT
BRANCH   1   9
ATOM      8  C   UNL     1       9.056  -0.211  25.596  0.00  0.00    +0.000 C 
ATOM      9  C   UNL     1       9.873   0.052  24.354  0.00  0.00    +0.000 C 
ATOM     10  C   UNL     1      11.023   0.741  24.464  0.00  0.00    +0.000 C 
ENDBRANCH   1   9
TORSDOF 1
ENDMDL
MODEL 7
REMARK VINA RESULT:      -4.1      1.639      3.473
REMARK  Name = 
REMARK  3 active torsions:
REMARK  status: ('A' for Active; 'I' for Inactive)
REMARK    1  A    between atoms: C_1  and  C_2
REMARK    2  A    between atoms: C_2  and  C_4
REMARK    3  A    between atoms: C_7  and  C_8
REMARK                            x       y       z     vdW  Elec       q    Type
REMARK                         _______ _______ _______ _____ _____    ______ ____
ROOT
ATOM      1  C   UNL     1      10.093  -1.303  23.836  0.00  0.00    +0.000 C 
ATOM      2  C   UNL     1      10.480   0.138  24.219  0.00  0.00    +0.000 C 
ATOM      3  C   UNL     1       9.492   1.162  23.649  0.00  0.00    +0.000 C 
ATOM      4  C   UNL     1       9.093   0.875  22.219  0.00  0.00    +0.000 C 
ATOM      5  C   UNL     1       8.256   1.912  21.534  0.00  0.00    +0.000 C 
ATOM      6  C   UNL     1       9.439  -0.267  21.599  0.00  0.00    +0.000 C 
ATOM      7  C   UNL     1      10.168  -1.392  22.290  0.00  0.00    +0.000 C 
ENDROOT
BRANCH   1   9
ATOM      8  C   UNL     1       8.614  -1.454  25.951  0.00  0.00    +0.000 C 
ATOM      9  C   UNL     1       8.766  -1.744  24.478  0.00  0.00    +0.000 C 
ATOM     10  C   UNL     1       7.765  -2.365  23.830  0.00  0.00    +0.000 C 
ENDBRANCH   1   9
TORSDOF 1
ENDMDL
MODEL 8
REMARK VINA RESULT:      -4.1      1.383      3.662
REMARK  Name = 
REMARK  3 active torsions:
REMARK  status: ('A' for Active; 'I' for Inactive)
REMARK    1  A    between atoms: C_1  and  C_2
REMARK    2  A    between atoms: C_2  and  C_4
REMARK    3  A    between atoms: C_7  and  C_8
REMARK                            x       y       z     vdW  Elec       q    Type
REMARK                         _______ _______ _______ _____ _____    ______ ____
ROOT
ATOM      1  C   UNL     1       8.393   0.210  22.935  0.00  0.00    +0.000 C 
ATOM      2  C   UNL     1       8.818   0.980  21.669  0.00  0.00    +0.000 C 
ATOM      3  C   UNL     1      10.075   1.822  21.914  0.00  0.00    +0.000 C 
ATOM      4  C   UNL     1      10.055   2.556  23.236  0.00  0.00    +0.000 C 
ATOM      5  C   UNL     1      11.171   3.525  23.482  0.00  0.00    +0.000 C 
ATOM      6  C   UNL     1       9.108   2.328  24.162  0.00  0.00    +0.000 C 
ATOM      7  C   UNL     1       8.043   1.270  24.010  0.00  0.00    +0.000 C 
ENDROOT
BRANCH   1   9
ATOM      8  C   UNL     1       9.541  -1.132  24.823  0.00  0.00    +0.000 C 
ATOM      9  C   UNL     1       9.422  -0.859  23.344  0.00  0.00    +0.000 C 
ATOM     10  C   UNL     1      10.208  -1.537  22.489  0.00  0.00    +0.000 C 
ENDBRANCH   1   9
TORSDOF 1
ENDMDL
MODEL 9
REMARK VINA RESULT:      -4.0      1.457      2.368
REMARK  Name = 
REMARK  3 active torsions:
REMARK  status: ('A' for Active; 'I' for Inactive)
REMARK    1  A    between atoms: C_1  and  C_2
REMARK    2  A    between atoms: C_2  and  C_4
REMARK    3  A    between atoms: C_7  and  C_8
REMARK                            x       y       z     vdW  Elec       q    Type
REMARK                         _______ _______ _______ _____ _____    ______ ____
ROOT
ATOM      1  C   UNL     1      10.377  -0.308  23.593  0.00  0.00    +0.000 C 
ATOM      2  C   UNL     1      10.272  -1.291  22.411  0.00  0.00    +0.000 C 
ATOM      3  C   UNL     1       8.815  -1.512  21.985  0.00  0.00    +0.000 C 
ATOM      4  C   UNL     1       7.870  -1.680  23.153  0.00  0.00    +0.000 C 
ATOM      5  C   UNL     1       6.457  -2.058  22.824  0.00  0.00    +0.000 C 
ATOM      6  C   UNL     1       8.261  -1.467  24.422  0.00  0.00    +0.000 C 
ATOM      7  C   UNL     1       9.634  -0.960  24.787  0.00  0.00    +0.000 C 
ENDROOT
BRANCH   1   9
ATOM      8  C   UNL     1       9.390   1.963  24.337  0.00  0.00    +0.000 C 
ATOM      9  C   UNL     1       9.933   1.116  23.213  0.00  0.00    +0.000 C 
ATOM     10  C   UNL     1       9.986   1.633  21.973  0.00  0.00    +0.000 C 
ENDBRANCH   1   9
TORSDOF 1
ENDMDL
