MODEL 1
REMARK VINA RESULT:      -7.2      0.000      0.000
REMARK  Name = 
REMARK  13 active torsions:
REMARK  status: ('A' for Active; 'I' for Inactive)
REMARK    1  A    between atoms: C_2  and  C_25
REMARK    2  A    between atoms: C_13  and  O_14
REMARK    3  A    between atoms: C_17  and  C_18
REMARK    4  A    between atoms: C_23  and  C_24
REMARK    5  A    between atoms: C_25  and  C_26
REMARK    6  A    between atoms: C_25  and  C_27
REMARK    7  A    between atoms: C_27  and  C_28
REMARK    8  A    between atoms: C_28  and  C_29
REMARK    9  A    between atoms: C_29  and  C_30
REMARK   10  A    between atoms: C_29  and  C_32
REMARK   11  A    between atoms: C_30  and  C_31
REMARK   12  A    between atoms: C_32  and  C_33
REMARK   13  A    between atoms: C_32  and  C_34
REMARK                            x       y       z     vdW  Elec       q    Type
REMARK                         _______ _______ _______ _____ _____    ______ ____
ROOT
ATOM      1  C   UNL     1       7.103  -4.022  23.965  0.00  0.00    +0.000 C 
ATOM      2  C   UNL     1       8.487  -4.536  24.453  0.00  0.00    +0.000 C 
ATOM      3  C   UNL     1       9.436  -3.335  24.467  0.00  0.00    +0.000 C 
ATOM      4  C   UNL     1       8.520  -2.136  24.295  0.00  0.00    +0.000 C 
ATOM      5  C   UNL     1       9.162  -0.826  23.834  0.00  0.00    +0.000 C 
ATOM      6  C   UNL     1      10.281  -0.383  24.787  0.00  0.00    +0.000 C 
ATOM      7  C   UNL     1      10.747   1.009  24.510  0.00  0.00    +0.000 C 
ATOM      8  C   UNL     1      10.081   1.901  23.755  0.00  0.00    +0.000 C 
ATOM      9  C   UNL     1      10.669   3.273  23.515  0.00  0.00    +0.000 C 
ATOM     10  C   UNL     1       9.674   4.388  23.834  0.00  0.00    +0.000 C 
ATOM     11  C   UNL     1       8.340   4.173  23.122  0.00  0.00    +0.000 C 
ATOM     12  C   UNL     1       7.752   2.794  23.431  0.00  0.00    +0.000 C 
ATOM     13  C   UNL     1       8.711   1.610  23.117  0.00  0.00    +0.000 C 
ATOM     14  C   UNL     1       8.908   1.498  21.584  0.00  0.00    +0.000 C 
ATOM     15  C   UNL     1       8.081   0.284  23.712  0.00  0.00    +0.000 C 
ATOM     16  C   UNL     1       6.780  -0.191  22.993  0.00  0.00    +0.000 C 
ATOM     17  C   UNL     1       6.287  -1.592  23.415  0.00  0.00    +0.000 C 
ATOM     18  C   UNL     1       7.420  -2.633  23.327  0.00  0.00    +0.000 C 
ATOM     19  C   UNL     1       7.899  -2.738  21.868  0.00  0.00    +0.000 C 
ENDROOT
BRANCH   1  20
ATOM     20  C   UNL     1       6.265  -5.095  23.202  0.00  0.00    +0.000 C 
ATOM     21  C   UNL     1       7.057  -6.101  22.350  0.00  0.00    +0.000 C 
BRANCH  20  22
ATOM     22  C   UNL     1       5.397  -5.947  24.173  0.00  0.00    +0.000 C 
BRANCH  22  23
ATOM     23  C   UNL     1       4.283  -5.206  24.916  0.00  0.00    +0.000 C 
BRANCH  23  24
ATOM     24  C   UNL     1       4.440  -5.110  26.459  0.00  0.00    +0.000 C 
BRANCH  24  25
ATOM     25  C   UNL     1       4.568  -3.617  26.902  0.00  0.00    +0.000 C 
ATOM     26  C   UNL     1       6.035  -3.202  27.115  0.00  0.00    +0.000 C 
ATOM     27  C   UNL     1       3.949  -2.645  25.892  0.00  0.00    +0.000 C 
ENDBRANCH  24  25
BRANCH  24  28
ATOM     28  C   UNL     1       5.597  -6.005  26.977  0.00  0.00    +0.000 C 
ATOM     29  C   UNL     1       5.295  -6.788  28.250  0.00  0.00    +0.000 C 
ENDBRANCH  24  28
ENDBRANCH  23  24
ENDBRANCH  22  23
ENDBRANCH  20  22
ENDBRANCH   1  20
BRANCH  10  30
ATOM     30  O   UNL     1      10.216   5.649  23.447  0.00  0.00    +0.000 OA
ATOM     31  H   UNL     1       9.497   6.175  23.056  0.00  0.00    +0.000 HD
ENDBRANCH  10  30
TORSDOF 7
ENDMDL
MODEL 2
REMARK VINA RESULT:      -7.2      2.879      8.143
REMARK  Name = 
REMARK  13 active torsions:
REMARK  status: ('A' for Active; 'I' for Inactive)
REMARK    1  A    between atoms: C_2  and  C_25
REMARK    2  A    between atoms: C_13  and  O_14
REMARK    3  A    between atoms: C_17  and  C_18
REMARK    4  A    between atoms: C_23  and  C_24
REMARK    5  A    between atoms: C_25  and  C_26
REMARK    6  A    between atoms: C_25  and  C_27
REMARK    7  A    between atoms: C_27  and  C_28
REMARK    8  A    between atoms: C_28  and  C_29
REMARK    9  A    between atoms: C_29  and  C_30
REMARK   10  A    between atoms: C_29  and  C_32
REMARK   11  A    between atoms: C_30  and  C_31
REMARK   12  A    between atoms: C_32  and  C_33
REMARK   13  A    between atoms: C_32  and  C_34
REMARK                            x       y       z     vdW  Elec       q    Type
REMARK                         _______ _______ _______ _____ _____    ______ ____
ROOT
ATOM      1  C   UNL     1       9.554   2.346  23.362  0.00  0.00    +0.000 C 
ATOM      2  C   UNL     1      10.033   1.837  21.973  0.00  0.00    +0.000 C 
ATOM      3  C   UNL     1       9.667   0.354  21.886  0.00  0.00    +0.000 C 
ATOM      4  C   UNL     1       8.733   0.131  23.063  0.00  0.00    +0.000 C 
ATOM      5  C   UNL     1       8.524  -1.312  23.527  0.00  0.00    +0.000 C 
ATOM      6  C   UNL     1       8.005  -2.199  22.388  0.00  0.00    +0.000 C 
ATOM      7  C   UNL     1       7.550  -3.538  22.871  0.00  0.00    +0.000 C 
ATOM      8  C   UNL     1       7.306  -3.842  24.158  0.00  0.00    +0.000 C 
ATOM      9  C   UNL     1       6.884  -5.245  24.534  0.00  0.00    +0.000 C 
ATOM     10  C   UNL     1       5.620  -5.253  25.393  0.00  0.00    +0.000 C 
ATOM     11  C   UNL     1       5.752  -4.323  26.597  0.00  0.00    +0.000 C 
ATOM     12  C   UNL     1       6.130  -2.902  26.173  0.00  0.00    +0.000 C 
ATOM     13  C   UNL     1       7.418  -2.820  25.303  0.00  0.00    +0.000 C 
ATOM     14  C   UNL     1       8.648  -3.195  26.166  0.00  0.00    +0.000 C 
ATOM     15  C   UNL     1       7.545  -1.347  24.734  0.00  0.00    +0.000 C 
ATOM     16  C   UNL     1       7.849  -0.263  25.813  0.00  0.00    +0.000 C 
ATOM     17  C   UNL     1       8.196   1.131  25.246  0.00  0.00    +0.000 C 
ATOM     18  C   UNL     1       9.302   1.040  24.179  0.00  0.00    +0.000 C 
ATOM     19  C   UNL     1      10.583   0.479  24.822  0.00  0.00    +0.000 C 
ENDROOT
BRANCH   1  20
ATOM     20  C   UNL     1      10.419   3.511  23.940  0.00  0.00    +0.000 C 
ATOM     21  C   UNL     1      11.659   3.911  23.123  0.00  0.00    +0.000 C 
BRANCH  20  22
ATOM     22  C   UNL     1       9.586   4.814  24.117  0.00  0.00    +0.000 C 
BRANCH  22  23
ATOM     23  C   UNL     1       8.186   4.649  24.711  0.00  0.00    +0.000 C 
BRANCH  23  24
ATOM     24  C   UNL     1       7.000   4.843  23.726  0.00  0.00    +0.000 C 
BRANCH  24  25
ATOM     25  C   UNL     1       6.093   3.571  23.707  0.00  0.00    +0.000 C 
ATOM     26  C   UNL     1       4.621   3.908  24.002  0.00  0.00    +0.000 C 
ATOM     27  C   UNL     1       6.144   2.829  22.367  0.00  0.00    +0.000 C 
ENDBRANCH  24  25
BRANCH  24  28
ATOM     28  C   UNL     1       7.487   5.270  22.316  0.00  0.00    +0.000 C 
ATOM     29  C   UNL     1       7.094   6.681  21.890  0.00  0.00    +0.000 C 
ENDBRANCH  24  28
ENDBRANCH  23  24
ENDBRANCH  22  23
ENDBRANCH  20  22
ENDBRANCH   1  20
BRANCH  10  30
ATOM     30  O   UNL     1       5.351  -6.578  25.849  0.00  0.00    +0.000 OA
ATOM     31  H   UNL     1       6.186  -6.957  26.173  0.00  0.00    +0.000 HD
ENDBRANCH  10  30
TORSDOF 7
ENDMDL
MODEL 3
REMARK VINA RESULT:      -7.0      3.053      8.132
REMARK  Name = 
REMARK  13 active torsions:
REMARK  status: ('A' for Active; 'I' for Inactive)
REMARK    1  A    between atoms: C_2  and  C_25
REMARK    2  A    between atoms: C_13  and  O_14
REMARK    3  A    between atoms: C_17  and  C_18
REMARK    4  A    between atoms: C_23  and  C_24
REMARK    5  A    between atoms: C_25  and  C_26
REMARK    6  A    between atoms: C_25  and  C_27
REMARK    7  A    between atoms: C_27  and  C_28
REMARK    8  A    between atoms: C_28  and  C_29
REMARK    9  A    between atoms: C_29  and  C_30
REMARK   10  A    between atoms: C_29  and  C_32
REMARK   11  A    between atoms: C_30  and  C_31
REMARK   12  A    between atoms: C_32  and  C_33
REMARK   13  A    between atoms: C_32  and  C_34
REMARK                            x       y       z     vdW  Elec       q    Type
REMARK                         _______ _______ _______ _____ _____    ______ ____
ROOT
ATOM      1  C   UNL     1       9.973  -0.049  23.360  0.00  0.00    +0.000 C 
ATOM      2  C   UNL     1      10.258   0.268  24.855  0.00  0.00    +0.000 C 
ATOM      3  C   UNL     1       9.394  -0.679  25.690  0.00  0.00    +0.000 C 
ATOM      4  C   UNL     1       8.886  -1.701  24.687  0.00  0.00    +0.000 C 
ATOM      5  C   UNL     1       7.663  -2.528  25.089  0.00  0.00    +0.000 C 
ATOM      6  C   UNL     1       7.906  -3.290  26.398  0.00  0.00    +0.000 C 
ATOM      7  C   UNL     1       6.838  -4.298  26.678  0.00  0.00    +0.000 C 
ATOM      8  C   UNL     1       5.947  -4.736  25.771  0.00  0.00    +0.000 C 
ATOM      9  C   UNL     1       4.886  -5.733  26.178  0.00  0.00    +0.000 C 
ATOM     10  C   UNL     1       4.843  -6.941  25.242  0.00  0.00    +0.000 C 
ATOM     11  C   UNL     1       4.738  -6.515  23.779  0.00  0.00    +0.000 C 
ATOM     12  C   UNL     1       5.857  -5.547  23.391  0.00  0.00    +0.000 C 
ATOM     13  C   UNL     1       5.950  -4.286  24.298  0.00  0.00    +0.000 C 
ATOM     14  C   UNL     1       4.708  -3.391  24.066  0.00  0.00    +0.000 C 
ATOM     15  C   UNL     1       7.288  -3.514  23.947  0.00  0.00    +0.000 C 
ATOM     16  C   UNL     1       7.301  -2.860  22.531  0.00  0.00    +0.000 C 
ATOM     17  C   UNL     1       8.499  -1.921  22.267  0.00  0.00    +0.000 C 
ATOM     18  C   UNL     1       8.654  -0.883  23.394  0.00  0.00    +0.000 C 
ATOM     19  C   UNL     1       7.391  -0.004  23.452  0.00  0.00    +0.000 C 
ENDROOT
BRANCH   1  20
ATOM     20  C   UNL     1      10.132   1.181  22.412  0.00  0.00    +0.000 C 
ATOM     21  C   UNL     1       8.938   1.496  21.495  0.00  0.00    +0.000 C 
BRANCH  20  22
ATOM     22  C   UNL     1      10.416   2.489  23.207  0.00  0.00    +0.000 C 
BRANCH  22  23
ATOM     23  C   UNL     1       9.270   3.500  23.282  0.00  0.00    +0.000 C 
BRANCH  23  24
ATOM     24  C   UNL     1       8.964   4.080  24.690  0.00  0.00    +0.000 C 
BRANCH  24  25
ATOM     25  C   UNL     1       7.504   3.730  25.120  0.00  0.00    +0.000 C 
ATOM     26  C   UNL     1       6.582   3.507  23.907  0.00  0.00    +0.000 C 
ATOM     27  C   UNL     1       7.431   2.476  25.999  0.00  0.00    +0.000 C 
ENDBRANCH  24  25
BRANCH  24  28
ATOM     28  C   UNL     1       9.279   5.598  24.769  0.00  0.00    +0.000 C 
ATOM     29  C   UNL     1       9.189   6.352  23.446  0.00  0.00    +0.000 C 
ENDBRANCH  24  28
ENDBRANCH  23  24
ENDBRANCH  22  23
ENDBRANCH  20  22
ENDBRANCH   1  20
BRANCH  10  30
ATOM     30  O   UNL     1       3.732  -7.772  25.572  0.00  0.00    +0.000 OA
ATOM     31  H   UNL     1       3.016  -7.576  24.943  0.00  0.00    +0.000 HD
ENDBRANCH  10  30
TORSDOF 7
ENDMDL
MODEL 4
REMARK VINA RESULT:      -7.0      3.030      8.269
REMARK  Name = 
REMARK  13 active torsions:
REMARK  status: ('A' for Active; 'I' for Inactive)
REMARK    1  A    between atoms: C_2  and  C_25
REMARK    2  A    between atoms: C_13  and  O_14
REMARK    3  A    between atoms: C_17  and  C_18
REMARK    4  A    between atoms: C_23  and  C_24
REMARK    5  A    between atoms: C_25  and  C_26
REMARK    6  A    between atoms: C_25  and  C_27
REMARK    7  A    between atoms: C_27  and  C_28
REMARK    8  A    between atoms: C_28  and  C_29
REMARK    9  A    between atoms: C_29  and  C_30
REMARK   10  A    between atoms: C_29  and  C_32
REMARK   11  A    between atoms: C_30  and  C_31
REMARK   12  A    between atoms: C_32  and  C_33
REMARK   13  A    between atoms: C_32  and  C_34
REMARK                            x       y       z     vdW  Elec       q    Type
REMARK                         _______ _______ _______ _____ _____    ______ ____
ROOT
ATOM      1  C   UNL     1       9.085   1.143  23.321  0.00  0.00    +0.000 C 
ATOM      2  C   UNL     1       9.683   0.757  21.938  0.00  0.00    +0.000 C 
ATOM      3  C   UNL     1       9.232  -0.672  21.635  0.00  0.00    +0.000 C 
ATOM      4  C   UNL     1       8.158  -0.952  22.671  0.00  0.00    +0.000 C 
ATOM      5  C   UNL     1       7.802  -2.417  22.934  0.00  0.00    +0.000 C 
ATOM      6  C   UNL     1       7.358  -3.126  21.647  0.00  0.00    +0.000 C 
ATOM      7  C   UNL     1       6.763  -4.471  21.914  0.00  0.00    +0.000 C 
ATOM      8  C   UNL     1       6.356  -4.899  23.123  0.00  0.00    +0.000 C 
ATOM      9  C   UNL     1       5.802  -6.297  23.280  0.00  0.00    +0.000 C 
ATOM     10  C   UNL     1       4.452  -6.302  23.996  0.00  0.00    +0.000 C 
ATOM     11  C   UNL     1       4.508  -5.527  25.310  0.00  0.00    +0.000 C 
ATOM     12  C   UNL     1       5.025  -4.102  25.103  0.00  0.00    +0.000 C 
ATOM     13  C   UNL     1       6.405  -4.024  24.389  0.00  0.00    +0.000 C 
ATOM     14  C   UNL     1       7.503  -4.591  25.324  0.00  0.00    +0.000 C 
ATOM     15  C   UNL     1       6.693  -2.511  24.018  0.00  0.00    +0.000 C 
ATOM     16  C   UNL     1       6.944  -1.583  25.247  0.00  0.00    +0.000 C 
ATOM     17  C   UNL     1       7.445  -0.166  24.892  0.00  0.00    +0.000 C 
ATOM     18  C   UNL     1       8.656  -0.223  23.942  0.00  0.00    +0.000 C 
ATOM     19  C   UNL     1       9.816  -0.953  24.644  0.00  0.00    +0.000 C 
ENDROOT
BRANCH   1  20
ATOM     20  C   UNL     1       9.954   2.163  24.122  0.00  0.00    +0.000 C 
ATOM     21  C   UNL     1      10.957   2.995  23.305  0.00  0.00    +0.000 C 
BRANCH  20  22
ATOM     22  C   UNL     1       9.074   3.190  24.892  0.00  0.00    +0.000 C 
BRANCH  22  23
ATOM     23  C   UNL     1       7.708   3.507  24.281  0.00  0.00    +0.000 C 
BRANCH  23  24
ATOM     24  C   UNL     1       7.727   4.233  22.907  0.00  0.00    +0.000 C 
BRANCH  24  25
ATOM     25  C   UNL     1       7.735   5.782  23.109  0.00  0.00    +0.000 C 
ATOM     26  C   UNL     1       9.159   6.331  23.314  0.00  0.00    +0.000 C 
ATOM     27  C   UNL     1       7.109   6.536  21.930  0.00  0.00    +0.000 C 
ENDBRANCH  24  25
BRANCH  24  28
ATOM     28  C   UNL     1       6.585   3.742  21.979  0.00  0.00    +0.000 C 
ATOM     29  C   UNL     1       5.876   2.471  22.434  0.00  0.00    +0.000 C 
ENDBRANCH  24  28
ENDBRANCH  23  24
ENDBRANCH  22  23
ENDBRANCH  20  22
ENDBRANCH   1  20
BRANCH  10  30
ATOM     30  O   UNL     1       4.045  -7.644  24.257  0.00  0.00    +0.000 OA
ATOM     31  H   UNL     1       3.569  -7.651  25.105  0.00  0.00    +0.000 HD
ENDBRANCH  10  30
TORSDOF 7
ENDMDL
MODEL 5
REMARK VINA RESULT:      -6.9      3.066      8.109
REMARK  Name = 
REMARK  13 active torsions:
REMARK  status: ('A' for Active; 'I' for Inactive)
REMARK    1  A    between atoms: C_2  and  C_25
REMARK    2  A    between atoms: C_13  and  O_14
REMARK    3  A    between atoms: C_17  and  C_18
REMARK    4  A    between atoms: C_23  and  C_24
REMARK    5  A    between atoms: C_25  and  C_26
REMARK    6  A    between atoms: C_25  and  C_27
REMARK    7  A    between atoms: C_27  and  C_28
REMARK    8  A    between atoms: C_28  and  C_29
REMARK    9  A    between atoms: C_29  and  C_30
REMARK   10  A    between atoms: C_29  and  C_32
REMARK   11  A    between atoms: C_30  and  C_31
REMARK   12  A    between atoms: C_32  and  C_33
REMARK   13  A    between atoms: C_32  and  C_34
REMARK                            x       y       z     vdW  Elec       q    Type
REMARK                         _______ _______ _______ _____ _____    ______ ____
ROOT
ATOM      1  C   UNL     1       9.784  -0.077  23.364  0.00  0.00    +0.000 C 
ATOM      2  C   UNL     1      10.060   0.333  24.838  0.00  0.00    +0.000 C 
ATOM      3  C   UNL     1       9.199  -0.569  25.726  0.00  0.00    +0.000 C 
ATOM      4  C   UNL     1       8.703  -1.653  24.785  0.00  0.00    +0.000 C 
ATOM      5  C   UNL     1       7.484  -2.464  25.232  0.00  0.00    +0.000 C 
ATOM      6  C   UNL     1       7.727  -3.143  26.587  0.00  0.00    +0.000 C 
ATOM      7  C   UNL     1       6.666  -4.140  26.923  0.00  0.00    +0.000 C 
ATOM      8  C   UNL     1       5.782  -4.639  26.040  0.00  0.00    +0.000 C 
ATOM      9  C   UNL     1       4.726  -5.618  26.504  0.00  0.00    +0.000 C 
ATOM     10  C   UNL     1       4.696  -6.880  25.643  0.00  0.00    +0.000 C 
ATOM     11  C   UNL     1       4.594  -6.545  24.157  0.00  0.00    +0.000 C 
ATOM     12  C   UNL     1       5.708  -5.594  23.715  0.00  0.00    +0.000 C 
ATOM     13  C   UNL     1       5.788  -4.280  24.543  0.00  0.00    +0.000 C 
ATOM     14  C   UNL     1       4.540  -3.410  24.252  0.00  0.00    +0.000 C 
ATOM     15  C   UNL     1       7.121  -3.520  24.151  0.00  0.00    +0.000 C 
ATOM     16  C   UNL     1       7.136  -2.953  22.698  0.00  0.00    +0.000 C 
ATOM     17  C   UNL     1       8.328  -2.023  22.382  0.00  0.00    +0.000 C 
ATOM     18  C   UNL     1       8.470  -0.917  23.444  0.00  0.00    +0.000 C 
ATOM     19  C   UNL     1       7.201  -0.047  23.443  0.00  0.00    +0.000 C 
ENDROOT
BRANCH   1  20
ATOM     20  C   UNL     1       9.938   1.094  22.343  0.00  0.00    +0.000 C 
ATOM     21  C   UNL     1       8.990   1.073  21.132  0.00  0.00    +0.000 C 
BRANCH  20  22
ATOM     22  C   UNL     1       9.733   2.480  23.021  0.00  0.00    +0.000 C 
BRANCH  22  23
ATOM     23  C   UNL     1       8.471   3.250  22.626  0.00  0.00    +0.000 C 
BRANCH  23  24
ATOM     24  C   UNL     1       7.795   4.076  23.755  0.00  0.00    +0.000 C 
BRANCH  24  25
ATOM     25  C   UNL     1       7.884   5.603  23.442  0.00  0.00    +0.000 C 
ATOM     26  C   UNL     1       9.328   6.129  23.533  0.00  0.00    +0.000 C 
ATOM     27  C   UNL     1       7.346   5.953  22.049  0.00  0.00    +0.000 C 
ENDBRANCH  24  25
BRANCH  24  28
ATOM     28  C   UNL     1       8.353   3.703  25.155  0.00  0.00    +0.000 C 
ATOM     29  C   UNL     1       7.470   2.776  25.983  0.00  0.00    +0.000 C 
ENDBRANCH  24  28
ENDBRANCH  23  24
ENDBRANCH  22  23
ENDBRANCH  20  22
ENDBRANCH   1  20
BRANCH  10  30
ATOM     30  O   UNL     1       3.590  -7.698  26.019  0.00  0.00    +0.000 OA
ATOM     31  H   UNL     1       3.702  -8.565  25.591  0.00  0.00    +0.000 HD
ENDBRANCH  10  30
TORSDOF 7
ENDMDL
MODEL 6
REMARK VINA RESULT:      -6.7      3.096      8.215
REMARK  Name = 
REMARK  13 active torsions:
REMARK  status: ('A' for Active; 'I' for Inactive)
REMARK    1  A    between atoms: C_2  and  C_25
REMARK    2  A    between atoms: C_13  and  O_14
REMARK    3  A    between atoms: C_17  and  C_18
REMARK    4  A    between atoms: C_23  and  C_24
REMARK    5  A    between atoms: C_25  and  C_26
REMARK    6  A    between atoms: C_25  and  C_27
REMARK    7  A    between atoms: C_27  and  C_28
REMARK    8  A    between atoms: C_28  and  C_29
REMARK    9  A    between atoms: C_29  and  C_30
REMARK   10  A    between atoms: C_29  and  C_32
REMARK   11  A    between atoms: C_30  and  C_31
REMARK   12  A    between atoms: C_32  and  C_33
REMARK   13  A    between atoms: C_32  and  C_34
REMARK                            x       y       z     vdW  Elec       q    Type
REMARK                         _______ _______ _______ _____ _____    ______ ____
ROOT
ATOM      1  C   UNL     1       9.050   1.007  23.242  0.00  0.00    +0.000 C 
ATOM      2  C   UNL     1       9.865   0.490  22.022  0.00  0.00    +0.000 C 
ATOM      3  C   UNL     1       9.440  -0.959  21.777  0.00  0.00    +0.000 C 
ATOM      4  C   UNL     1       8.200  -1.134  22.636  0.00  0.00    +0.000 C 
ATOM      5  C   UNL     1       7.773  -2.566  22.966  0.00  0.00    +0.000 C 
ATOM      6  C   UNL     1       7.537  -3.389  21.692  0.00  0.00    +0.000 C 
ATOM      7  C   UNL     1       6.877  -4.699  21.974  0.00  0.00    +0.000 C 
ATOM      8  C   UNL     1       6.261  -5.010  23.129  0.00  0.00    +0.000 C 
ATOM      9  C   UNL     1       5.657  -6.384  23.316  0.00  0.00    +0.000 C 
ATOM     10  C   UNL     1       4.205  -6.313  23.787  0.00  0.00    +0.000 C 
ATOM     11  C   UNL     1       4.055  -5.420  25.016  0.00  0.00    +0.000 C 
ATOM     12  C   UNL     1       4.632  -4.023  24.772  0.00  0.00    +0.000 C 
ATOM     13  C   UNL     1       6.114  -4.021  24.300  0.00  0.00    +0.000 C 
ATOM     14  C   UNL     1       7.024  -4.505  25.456  0.00  0.00    +0.000 C 
ATOM     15  C   UNL     1       6.494  -2.551  23.848  0.00  0.00    +0.000 C 
ATOM     16  C   UNL     1       6.553  -1.515  25.013  0.00  0.00    +0.000 C 
ATOM     17  C   UNL     1       7.138  -0.140  24.621  0.00  0.00    +0.000 C 
ATOM     18  C   UNL     1       8.492  -0.293  23.902  0.00  0.00    +0.000 C 
ATOM     19  C   UNL     1       9.499  -0.962  24.855  0.00  0.00    +0.000 C 
ENDROOT
BRANCH   1  20
ATOM     20  C   UNL     1       9.793   2.091  24.084  0.00  0.00    +0.000 C 
ATOM     21  C   UNL     1      10.921   2.855  23.370  0.00  0.00    +0.000 C 
BRANCH  20  22
ATOM     22  C   UNL     1       8.814   3.177  24.618  0.00  0.00    +0.000 C 
BRANCH  22  23
ATOM     23  C   UNL     1       8.219   4.126  23.576  0.00  0.00    +0.000 C 
BRANCH  23  24
ATOM     24  C   UNL     1       6.688   4.371  23.673  0.00  0.00    +0.000 C 
BRANCH  24  25
ATOM     25  C   UNL     1       5.902   3.135  23.131  0.00  0.00    +0.000 C 
ATOM     26  C   UNL     1       4.434   3.475  22.818  0.00  0.00    +0.000 C 
ATOM     27  C   UNL     1       6.527   2.547  21.861  0.00  0.00    +0.000 C 
ENDBRANCH  24  25
BRANCH  24  28
ATOM     28  C   UNL     1       6.273   5.705  22.996  0.00  0.00    +0.000 C 
ATOM     29  C   UNL     1       7.195   6.184  21.880  0.00  0.00    +0.000 C 
ENDBRANCH  24  28
ENDBRANCH  23  24
ENDBRANCH  22  23
ENDBRANCH  20  22
ENDBRANCH   1  20
BRANCH  10  30
ATOM     30  O   UNL     1       3.731  -7.623  24.096  0.00  0.00    +0.000 OA
ATOM     31  H   UNL     1       4.496  -8.161  24.362  0.00  0.00    +0.000 HD
ENDBRANCH  10  30
TORSDOF 7
ENDMDL
MODEL 7
REMARK VINA RESULT:      -6.6      3.231      8.970
REMARK  Name = 
REMARK  13 active torsions:
REMARK  status: ('A' for Active; 'I' for Inactive)
REMARK    1  A    between atoms: C_2  and  C_25
REMARK    2  A    between atoms: C_13  and  O_14
REMARK    3  A    between atoms: C_17  and  C_18
REMARK    4  A    between atoms: C_23  and  C_24
REMARK    5  A    between atoms: C_25  and  C_26
REMARK    6  A    between atoms: C_25  and  C_27
REMARK    7  A    between atoms: C_27  and  C_28
REMARK    8  A    between atoms: C_28  and  C_29
REMARK    9  A    between atoms: C_29  and  C_30
REMARK   10  A    between atoms: C_29  and  C_32
REMARK   11  A    between atoms: C_30  and  C_31
REMARK   12  A    between atoms: C_32  and  C_33
REMARK   13  A    between atoms: C_32  and  C_34
REMARK                            x       y       z     vdW  Elec       q    Type
REMARK                         _______ _______ _______ _____ _____    ______ ____
ROOT
ATOM      1  C   UNL     1       8.696   0.518  23.146  0.00  0.00    +0.000 C 
ATOM      2  C   UNL     1       9.652  -0.140  22.111  0.00  0.00    +0.000 C 
ATOM      3  C   UNL     1       9.212  -1.597  21.952  0.00  0.00    +0.000 C 
ATOM      4  C   UNL     1       7.859  -1.654  22.640  0.00  0.00    +0.000 C 
ATOM      5  C   UNL     1       7.338  -3.034  23.045  0.00  0.00    +0.000 C 
ATOM      6  C   UNL     1       7.251  -3.979  21.838  0.00  0.00    +0.000 C 
ATOM      7  C   UNL     1       6.510  -5.238  22.152  0.00  0.00    +0.000 C 
ATOM      8  C   UNL     1       5.729  -5.414  23.233  0.00  0.00    +0.000 C 
ATOM      9  C   UNL     1       5.056  -6.747  23.467  0.00  0.00    +0.000 C 
ATOM     10  C   UNL     1       3.556  -6.596  23.719  0.00  0.00    +0.000 C 
ATOM     11  C   UNL     1       3.270  -5.578  24.820  0.00  0.00    +0.000 C 
ATOM     12  C   UNL     1       3.926  -4.227  24.524  0.00  0.00    +0.000 C 
ATOM     13  C   UNL     1       5.458  -4.307  24.269  0.00  0.00    +0.000 C 
ATOM     14  C   UNL     1       6.181  -4.691  25.584  0.00  0.00    +0.000 C 
ATOM     15  C   UNL     1       5.951  -2.900  23.733  0.00  0.00    +0.000 C 
ATOM     16  C   UNL     1       5.887  -1.751  24.786  0.00  0.00    +0.000 C 
ATOM     17  C   UNL     1       6.571  -0.438  24.347  0.00  0.00    +0.000 C 
ATOM     18  C   UNL     1       8.004  -0.695  23.845  0.00  0.00    +0.000 C 
ATOM     19  C   UNL     1       8.845  -1.284  24.992  0.00  0.00    +0.000 C 
ENDROOT
BRANCH   1  20
ATOM     20  C   UNL     1       9.354   1.666  23.974  0.00  0.00    +0.000 C 
ATOM     21  C   UNL     1      10.877   1.576  24.174  0.00  0.00    +0.000 C 
BRANCH  20  22
ATOM     22  C   UNL     1       9.089   3.061  23.337  0.00  0.00    +0.000 C 
BRANCH  22  23
ATOM     23  C   UNL     1       9.325   4.275  24.239  0.00  0.00    +0.000 C 
BRANCH  23  24
ATOM     24  C   UNL     1      10.131   5.444  23.609  0.00  0.00    +0.000 C 
BRANCH  24  25
ATOM     25  C   UNL     1      11.630   5.371  24.046  0.00  0.00    +0.000 C 
ATOM     26  C   UNL     1      12.575   5.205  22.842  0.00  0.00    +0.000 C 
ATOM     27  C   UNL     1      12.080   6.612  24.825  0.00  0.00    +0.000 C 
ENDBRANCH  24  25
BRANCH  24  28
ATOM     28  C   UNL     1       9.474   6.820  23.901  0.00  0.00    +0.000 C 
ATOM     29  C   UNL     1       8.115   6.760  24.589  0.00  0.00    +0.000 C 
ENDBRANCH  24  28
ENDBRANCH  23  24
ENDBRANCH  22  23
ENDBRANCH  20  22
ENDBRANCH   1  20
BRANCH  10  30
ATOM     30  O   UNL     1       2.995  -7.856  24.085  0.00  0.00    +0.000 OA
ATOM     31  H   UNL     1       3.267  -8.048  24.999  0.00  0.00    +0.000 HD
ENDBRANCH  10  30
TORSDOF 7
ENDMDL
MODEL 8
REMARK VINA RESULT:      -6.5      1.643      2.567
REMARK  Name = 
REMARK  13 active torsions:
REMARK  status: ('A' for Active; 'I' for Inactive)
REMARK    1  A    between atoms: C_2  and  C_25
REMARK    2  A    between atoms: C_13  and  O_14
REMARK    3  A    between atoms: C_17  and  C_18
REMARK    4  A    between atoms: C_23  and  C_24
REMARK    5  A    between atoms: C_25  and  C_26
REMARK    6  A    between atoms: C_25  and  C_27
REMARK    7  A    between atoms: C_27  and  C_28
REMARK    8  A    between atoms: C_28  and  C_29
REMARK    9  A    between atoms: C_29  and  C_30
REMARK   10  A    between atoms: C_29  and  C_32
REMARK   11  A    between atoms: C_30  and  C_31
REMARK   12  A    between atoms: C_32  and  C_33
REMARK   13  A    between atoms: C_32  and  C_34
REMARK                            x       y       z     vdW  Elec       q    Type
REMARK                         _______ _______ _______ _____ _____    ______ ____
ROOT
ATOM      1  C   UNL     1       8.024  -2.921  24.854  0.00  0.00    +0.000 C 
ATOM      2  C   UNL     1       8.165  -2.757  26.394  0.00  0.00    +0.000 C 
ATOM      3  C   UNL     1       8.183  -1.256  26.689  0.00  0.00    +0.000 C 
ATOM      4  C   UNL     1       7.748  -0.615  25.382  0.00  0.00    +0.000 C 
ATOM      5  C   UNL     1       8.070   0.868  25.189  0.00  0.00    +0.000 C 
ATOM      6  C   UNL     1       7.471   1.725  26.312  0.00  0.00    +0.000 C 
ATOM      7  C   UNL     1       7.546   3.187  26.016  0.00  0.00    +0.000 C 
ATOM      8  C   UNL     1       7.799   3.708  24.802  0.00  0.00    +0.000 C 
ATOM      9  C   UNL     1       7.888   5.207  24.628  0.00  0.00    +0.000 C 
ATOM     10  C   UNL     1       6.998   5.707  23.491  0.00  0.00    +0.000 C 
ATOM     11  C   UNL     1       7.252   4.937  22.197  0.00  0.00    +0.000 C 
ATOM     12  C   UNL     1       7.103   3.428  22.401  0.00  0.00    +0.000 C 
ATOM     13  C   UNL     1       7.992   2.849  23.539  0.00  0.00    +0.000 C 
ATOM     14  C   UNL     1       9.482   2.933  23.123  0.00  0.00    +0.000 C 
ATOM     15  C   UNL     1       7.555   1.349  23.804  0.00  0.00    +0.000 C 
ATOM     16  C   UNL     1       7.888   0.366  22.640  0.00  0.00    +0.000 C 
ATOM     17  C   UNL     1       7.673  -1.126  22.976  0.00  0.00    +0.000 C 
ATOM     18  C   UNL     1       8.381  -1.509  24.290  0.00  0.00    +0.000 C 
ATOM     19  C   UNL     1       9.896  -1.293  24.131  0.00  0.00    +0.000 C 
ENDROOT
BRANCH   1  20
ATOM     20  C   UNL     1       8.695  -4.214  24.293  0.00  0.00    +0.000 C 
ATOM     21  C   UNL     1       9.510  -5.050  25.294  0.00  0.00    +0.000 C 
BRANCH  20  22
ATOM     22  C   UNL     1       7.648  -5.186  23.677  0.00  0.00    +0.000 C 
BRANCH  22  23
ATOM     23  C   UNL     1       6.204  -4.682  23.619  0.00  0.00    +0.000 C 
BRANCH  23  24
ATOM     24  C   UNL     1       5.226  -5.293  24.660  0.00  0.00    +0.000 C 
BRANCH  24  25
ATOM     25  C   UNL     1       4.184  -4.225  25.122  0.00  0.00    +0.000 C 
ATOM     26  C   UNL     1       4.626  -2.794  24.766  0.00  0.00    +0.000 C 
ATOM     27  C   UNL     1       2.796  -4.451  24.511  0.00  0.00    +0.000 C 
ENDBRANCH  24  25
BRANCH  24  28
ATOM     28  C   UNL     1       5.982  -5.962  25.838  0.00  0.00    +0.000 C 
ATOM     29  C   UNL     1       5.675  -5.391  27.218  0.00  0.00    +0.000 C 
ENDBRANCH  24  28
ENDBRANCH  23  24
ENDBRANCH  22  23
ENDBRANCH  20  22
ENDBRANCH   1  20
BRANCH  10  30
ATOM     30  O   UNL     1       7.232   7.096  23.266  0.00  0.00    +0.000 OA
ATOM     31  H   UNL     1       7.567   7.198  22.358  0.00  0.00    +0.000 HD
ENDBRANCH  10  30
TORSDOF 7
ENDMDL
MODEL 9
REMARK VINA RESULT:      -6.5      3.226      8.818
REMARK  Name = 
REMARK  13 active torsions:
REMARK  status: ('A' for Active; 'I' for Inactive)
REMARK    1  A    between atoms: C_2  and  C_25
REMARK    2  A    between atoms: C_13  and  O_14
REMARK    3  A    between atoms: C_17  and  C_18
REMARK    4  A    between atoms: C_23  and  C_24
REMARK    5  A    between atoms: C_25  and  C_26
REMARK    6  A    between atoms: C_25  and  C_27
REMARK    7  A    between atoms: C_27  and  C_28
REMARK    8  A    between atoms: C_28  and  C_29
REMARK    9  A    between atoms: C_29  and  C_30
REMARK   10  A    between atoms: C_29  and  C_32
REMARK   11  A    between atoms: C_30  and  C_31
REMARK   12  A    between atoms: C_32  and  C_33
REMARK   13  A    between atoms: C_32  and  C_34
REMARK                            x       y       z     vdW  Elec       q    Type
REMARK                         _______ _______ _______ _____ _____    ______ ____
ROOT
ATOM      1  C   UNL     1       8.333   0.283  23.970  0.00  0.00    +0.000 C 
ATOM      2  C   UNL     1       8.792  -0.122  22.541  0.00  0.00    +0.000 C 
ATOM      3  C   UNL     1       8.262  -1.533  22.280  0.00  0.00    +0.000 C 
ATOM      4  C   UNL     1       7.273  -1.774  23.407  0.00  0.00    +0.000 C 
ATOM      5  C   UNL     1       6.886  -3.225  23.702  0.00  0.00    +0.000 C 
ATOM      6  C   UNL     1       6.304  -3.914  22.461  0.00  0.00    +0.000 C 
ATOM      7  C   UNL     1       5.684  -5.235  22.780  0.00  0.00    +0.000 C 
ATOM      8  C   UNL     1       5.368  -5.650  24.021  0.00  0.00    +0.000 C 
ATOM      9  C   UNL     1       4.777  -7.026  24.228  0.00  0.00    +0.000 C 
ATOM     10  C   UNL     1       3.495  -6.981  25.059  0.00  0.00    +0.000 C 
ATOM     11  C   UNL     1       3.697  -6.211  26.362  0.00  0.00    +0.000 C 
ATOM     12  C   UNL     1       4.248  -4.806  26.109  0.00  0.00    +0.000 C 
ATOM     13  C   UNL     1       5.562  -4.780  25.276  0.00  0.00    +0.000 C 
ATOM     14  C   UNL     1       6.714  -5.390  26.112  0.00  0.00    +0.000 C 
ATOM     15  C   UNL     1       5.874  -3.278  24.880  0.00  0.00    +0.000 C 
ATOM     16  C   UNL     1       6.267  -2.363  26.080  0.00  0.00    +0.000 C 
ATOM     17  C   UNL     1       6.788  -0.965  25.681  0.00  0.00    +0.000 C 
ATOM     18  C   UNL     1       7.909  -1.067  24.629  0.00  0.00    +0.000 C 
ATOM     19  C   UNL     1       9.097  -1.842  25.227  0.00  0.00    +0.000 C 
ENDROOT
BRANCH   1  20
ATOM     20  C   UNL     1       9.307   1.268  24.691  0.00  0.00    +0.000 C 
ATOM     21  C   UNL     1      10.711   1.409  24.079  0.00  0.00    +0.000 C 
BRANCH  20  22
ATOM     22  C   UNL     1       8.725   2.709  24.759  0.00  0.00    +0.000 C 
BRANCH  22  23
ATOM     23  C   UNL     1       9.242   3.700  23.714  0.00  0.00    +0.000 C 
BRANCH  23  24
ATOM     24  C   UNL     1       8.486   5.055  23.626  0.00  0.00    +0.000 C 
BRANCH  24  25
ATOM     25  C   UNL     1       7.425   5.015  22.480  0.00  0.00    +0.000 C 
ATOM     26  C   UNL     1       6.038   4.586  22.991  0.00  0.00    +0.000 C 
ATOM     27  C   UNL     1       7.266   6.367  21.775  0.00  0.00    +0.000 C 
ENDBRANCH  24  25
BRANCH  24  28
ATOM     28  C   UNL     1       9.464   6.255  23.516  0.00  0.00    +0.000 C 
ATOM     29  C   UNL     1      10.921   5.941  23.840  0.00  0.00    +0.000 C 
ENDBRANCH  24  28
ENDBRANCH  23  24
ENDBRANCH  22  23
ENDBRANCH  20  22
ENDBRANCH   1  20
BRANCH  10  30
ATOM     30  O   UNL     1       3.063  -8.307  25.357  0.00  0.00    +0.000 OA
ATOM     31  H   UNL     1       3.654  -8.667  26.040  0.00  0.00    +0.000 HD
ENDBRANCH  10  30
TORSDOF 7
ENDMDL
