MODEL 1
REMARK VINA RESULT:      -7.2      0.000      0.000
REMARK  Name = 
REMARK  5 active torsions:
REMARK  status: ('A' for Active; 'I' for Inactive)
REMARK    1  A    between atoms: O_1  and  C_2
REMARK    2  A    between atoms: C_4  and  O_5
REMARK    3  A    between atoms: C_10  and  C_14
REMARK    4  A    between atoms: C_17  and  O_18
REMARK    5  A    between atoms: C_19  and  O_20
REMARK                            x       y       z     vdW  Elec       q    Type
REMARK                         _______ _______ _______ _____ _____    ______ ____
ROOT
ATOM      1  C   UNL     1       8.668   3.370  24.651  0.00  0.00    +0.000 A 
ATOM      2  C   UNL     1       9.224   3.436  23.377  0.00  0.00    +0.000 A 
ATOM      3  C   UNL     1       9.489   2.250  22.686  0.00  0.00    +0.000 A 
ATOM      4  C   UNL     1       9.202   1.006  23.271  0.00  0.00    +0.000 A 
ATOM      5  C   UNL     1       9.479  -0.281  22.591  0.00  0.00    +0.000 A 
ATOM      6  O   UNL     1       9.919  -0.389  21.454  0.00  0.00    +0.000 OA
ATOM      7  C   UNL     1       9.205  -1.502  23.366  0.00  0.00    +0.000 A 
ATOM      8  C   UNL     1       8.674  -1.401  24.588  0.00  0.00    +0.000 A 
ATOM      9  O   UNL     1       8.338  -0.212  25.205  0.00  0.00    +0.000 OA
ATOM     10  C   UNL     1       8.642   0.962  24.552  0.00  0.00    +0.000 A 
ATOM     11  C   UNL     1       8.370   2.146  25.241  0.00  0.00    +0.000 A 
ENDROOT
BRANCH   8  12
ATOM     12  C   UNL     1       8.433  -2.613  25.383  0.00  0.00    +0.000 A 
ATOM     13  C   UNL     1       7.375  -2.667  26.307  0.00  0.00    +0.000 A 
ATOM     14  C   UNL     1       7.100  -3.846  27.013  0.00  0.00    +0.000 A 
ATOM     15  C   UNL     1       7.887  -4.970  26.788  0.00  0.00    +0.000 A 
ATOM     16  C   UNL     1       8.938  -4.918  25.875  0.00  0.00    +0.000 A 
ATOM     17  C   UNL     1       9.219  -3.753  25.175  0.00  0.00    +0.000 A 
BRANCH  15  18
ATOM     18  O   UNL     1       7.663  -6.154  27.433  0.00  0.00    +0.000 OA
ATOM     19  H   UNL     1       8.290  -6.222  28.173  0.00  0.00    +0.000 HD
ENDBRANCH  15  18
BRANCH  16  20
ATOM     20  O   UNL     1       9.701  -6.029  25.651  0.00  0.00    +0.000 OA
ATOM     21  H   UNL     1       9.426  -6.345  24.767  0.00  0.00    +0.000 HD
ENDBRANCH  16  20
ENDBRANCH   8  12
BRANCH   1  22
ATOM     22  O   UNL     1       8.399   4.501  25.364  0.00  0.00    +0.000 OA
ATOM     23  H   UNL     1       7.439   4.590  25.481  0.00  0.00    +0.000 HD
ENDBRANCH   1  22
BRANCH   3  24
ATOM     24  O   UNL     1      10.039   2.326  21.437  0.00  0.00    +0.000 OA
ATOM     25  H   UNL     1       9.509   1.832  20.793  0.00  0.00    +0.000 HD
ENDBRANCH   3  24
TORSDOF 5
ENDMDL
MODEL 2
REMARK VINA RESULT:      -7.2      2.944      7.095
REMARK  Name = 
REMARK  5 active torsions:
REMARK  status: ('A' for Active; 'I' for Inactive)
REMARK    1  A    between atoms: O_1  and  C_2
REMARK    2  A    between atoms: C_4  and  O_5
REMARK    3  A    between atoms: C_10  and  C_14
REMARK    4  A    between atoms: C_17  and  O_18
REMARK    5  A    between atoms: C_19  and  O_20
REMARK                            x       y       z     vdW  Elec       q    Type
REMARK                         _______ _______ _______ _____ _____    ______ ____
ROOT
ATOM      1  C   UNL     1       5.796  -5.962  25.643  0.00  0.00    +0.000 A 
ATOM      2  C   UNL     1       5.085  -6.348  24.510  0.00  0.00    +0.000 A 
ATOM      3  C   UNL     1       5.235  -5.617  23.329  0.00  0.00    +0.000 A 
ATOM      4  C   UNL     1       6.088  -4.501  23.286  0.00  0.00    +0.000 A 
ATOM      5  C   UNL     1       6.269  -3.680  22.066  0.00  0.00    +0.000 A 
ATOM      6  O   UNL     1       5.755  -3.918  20.980  0.00  0.00    +0.000 OA
ATOM      7  C   UNL     1       7.129  -2.492  22.199  0.00  0.00    +0.000 A 
ATOM      8  C   UNL     1       7.740  -2.249  23.362  0.00  0.00    +0.000 A 
ATOM      9  O   UNL     1       7.643  -3.047  24.485  0.00  0.00    +0.000 OA
ATOM     10  C   UNL     1       6.793  -4.131  24.435  0.00  0.00    +0.000 A 
ATOM     11  C   UNL     1       6.650  -4.865  25.614  0.00  0.00    +0.000 A 
ENDROOT
BRANCH   8  12
ATOM     12  C   UNL     1       8.569  -1.046  23.516  0.00  0.00    +0.000 A 
ATOM     13  C   UNL     1       9.274  -0.806  24.708  0.00  0.00    +0.000 A 
ATOM     14  C   UNL     1      10.121   0.304  24.828  0.00  0.00    +0.000 A 
ATOM     15  C   UNL     1      10.260   1.170  23.750  0.00  0.00    +0.000 A 
ATOM     16  C   UNL     1       9.561   0.937  22.569  0.00  0.00    +0.000 A 
ATOM     17  C   UNL     1       8.717  -0.158  22.442  0.00  0.00    +0.000 A 
BRANCH  15  18
ATOM     18  O   UNL     1      11.081   2.262  23.798  0.00  0.00    +0.000 OA
ATOM     19  H   UNL     1      11.804   2.130  23.162  0.00  0.00    +0.000 HD
ENDBRANCH  15  18
BRANCH  16  20
ATOM     20  O   UNL     1       9.710   1.787  21.509  0.00  0.00    +0.000 OA
ATOM     21  H   UNL     1      10.082   2.604  21.897  0.00  0.00    +0.000 HD
ENDBRANCH  16  20
ENDBRANCH   8  12
BRANCH   1  22
ATOM     22  O   UNL     1       5.675  -6.643  26.819  0.00  0.00    +0.000 OA
ATOM     23  H   UNL     1       6.503  -6.569  27.322  0.00  0.00    +0.000 HD
ENDBRANCH   1  22
BRANCH   3  24
ATOM     24  O   UNL     1       4.530  -6.001  22.224  0.00  0.00    +0.000 OA
ATOM     25  H   UNL     1       4.833  -6.863  21.900  0.00  0.00    +0.000 HD
ENDBRANCH   3  24
TORSDOF 5
ENDMDL
MODEL 3
REMARK VINA RESULT:      -7.1      2.629      7.449
REMARK  Name = 
REMARK  5 active torsions:
REMARK  status: ('A' for Active; 'I' for Inactive)
REMARK    1  A    between atoms: O_1  and  C_2
REMARK    2  A    between atoms: C_4  and  O_5
REMARK    3  A    between atoms: C_10  and  C_14
REMARK    4  A    between atoms: C_17  and  O_18
REMARK    5  A    between atoms: C_19  and  O_20
REMARK                            x       y       z     vdW  Elec       q    Type
REMARK                         _______ _______ _______ _____ _____    ______ ____
ROOT
ATOM      1  C   UNL     1       4.791  -5.796  23.497  0.00  0.00    +0.000 A 
ATOM      2  C   UNL     1       5.094  -6.342  24.741  0.00  0.00    +0.000 A 
ATOM      3  C   UNL     1       6.043  -5.711  25.550  0.00  0.00    +0.000 A 
ATOM      4  C   UNL     1       6.687  -4.542  25.113  0.00  0.00    +0.000 A 
ATOM      5  C   UNL     1       7.713  -3.844  25.922  0.00  0.00    +0.000 A 
ATOM      6  O   UNL     1       8.053  -4.170  27.052  0.00  0.00    +0.000 OA
ATOM      7  C   UNL     1       8.361  -2.681  25.294  0.00  0.00    +0.000 A 
ATOM      8  C   UNL     1       7.963  -2.279  24.083  0.00  0.00    +0.000 A 
ATOM      9  O   UNL     1       6.956  -2.873  23.348  0.00  0.00    +0.000 OA
ATOM     10  C   UNL     1       6.367  -4.009  23.861  0.00  0.00    +0.000 A 
ATOM     11  C   UNL     1       5.414  -4.634  23.053  0.00  0.00    +0.000 A 
ENDROOT
BRANCH   8  12
ATOM     12  C   UNL     1       8.631  -1.144  23.433  0.00  0.00    +0.000 A 
ATOM     13  C   UNL     1       8.874  -1.150  22.048  0.00  0.00    +0.000 A 
ATOM     14  C   UNL     1       9.445  -0.037  21.417  0.00  0.00    +0.000 A 
ATOM     15  C   UNL     1       9.768   1.082  22.176  0.00  0.00    +0.000 A 
ATOM     16  C   UNL     1       9.530   1.090  23.548  0.00  0.00    +0.000 A 
ATOM     17  C   UNL     1       8.969  -0.010  24.182  0.00  0.00    +0.000 A 
BRANCH  15  18
ATOM     18  O   UNL     1      10.314   2.204  21.618  0.00  0.00    +0.000 OA
ATOM     19  H   UNL     1      11.220   2.304  21.957  0.00  0.00    +0.000 HD
ENDBRANCH  15  18
BRANCH  16  20
ATOM     20  O   UNL     1       9.840   2.197  24.287  0.00  0.00    +0.000 OA
ATOM     21  H   UNL     1       9.307   2.916  23.892  0.00  0.00    +0.000 HD
ENDBRANCH  16  20
ENDBRANCH   8  12
BRANCH   1  22
ATOM     22  O   UNL     1       3.877  -6.382  22.671  0.00  0.00    +0.000 OA
ATOM     23  H   UNL     1       4.037  -7.339  22.639  0.00  0.00    +0.000 HD
ENDBRANCH   1  22
BRANCH   3  24
ATOM     24  O   UNL     1       6.337  -6.258  26.767  0.00  0.00    +0.000 OA
ATOM     25  H   UNL     1       6.261  -7.224  26.743  0.00  0.00    +0.000 HD
ENDBRANCH   3  24
TORSDOF 5
ENDMDL
MODEL 4
REMARK VINA RESULT:      -7.0      2.881      7.683
REMARK  Name = 
REMARK  5 active torsions:
REMARK  status: ('A' for Active; 'I' for Inactive)
REMARK    1  A    between atoms: O_1  and  C_2
REMARK    2  A    between atoms: C_4  and  O_5
REMARK    3  A    between atoms: C_10  and  C_14
REMARK    4  A    between atoms: C_17  and  O_18
REMARK    5  A    between atoms: C_19  and  O_20
REMARK                            x       y       z     vdW  Elec       q    Type
REMARK                         _______ _______ _______ _____ _____    ______ ____
ROOT
ATOM      1  C   UNL     1       3.996  -6.552  24.128  0.00  0.00    +0.000 A 
ATOM      2  C   UNL     1       4.050  -7.194  25.363  0.00  0.00    +0.000 A 
ATOM      3  C   UNL     1       4.943  -6.731  26.333  0.00  0.00    +0.000 A 
ATOM      4  C   UNL     1       5.781  -5.636  26.066  0.00  0.00    +0.000 A 
ATOM      5  C   UNL     1       6.758  -5.117  27.052  0.00  0.00    +0.000 A 
ATOM      6  O   UNL     1       6.890  -5.539  28.193  0.00  0.00    +0.000 OA
ATOM      7  C   UNL     1       7.626  -4.019  26.596  0.00  0.00    +0.000 A 
ATOM      8  C   UNL     1       7.457  -3.511  25.372  0.00  0.00    +0.000 A 
ATOM      9  O   UNL     1       6.500  -3.932  24.469  0.00  0.00    +0.000 OA
ATOM     10  C   UNL     1       5.710  -5.005  24.820  0.00  0.00    +0.000 A 
ATOM     11  C   UNL     1       4.813  -5.461  23.851  0.00  0.00    +0.000 A 
ENDROOT
BRANCH   8  12
ATOM     12  C   UNL     1       8.343  -2.441  24.894  0.00  0.00    +0.000 A 
ATOM     13  C   UNL     1       8.666  -1.352  25.722  0.00  0.00    +0.000 A 
ATOM     14  C   UNL     1       9.568  -0.369  25.293  0.00  0.00    +0.000 A 
ATOM     15  C   UNL     1      10.147  -0.483  24.035  0.00  0.00    +0.000 A 
ATOM     16  C   UNL     1       9.826  -1.559  23.211  0.00  0.00    +0.000 A 
ATOM     17  C   UNL     1       8.931  -2.535  23.626  0.00  0.00    +0.000 A 
BRANCH  15  18
ATOM     18  O   UNL     1      11.044   0.434  23.563  0.00  0.00    +0.000 OA
ATOM     19  H   UNL     1      10.573   1.270  23.403  0.00  0.00    +0.000 HD
ENDBRANCH  15  18
BRANCH  16  20
ATOM     20  O   UNL     1      10.406  -1.670  21.978  0.00  0.00    +0.000 OA
ATOM     21  H   UNL     1      11.290  -2.052  22.154  0.00  0.00    +0.000 HD
ENDBRANCH  16  20
ENDBRANCH   8  12
BRANCH   1  22
ATOM     22  O   UNL     1       3.145  -6.974  23.149  0.00  0.00    +0.000 OA
ATOM     23  H   UNL     1       3.318  -7.909  22.951  0.00  0.00    +0.000 HD
ENDBRANCH   1  22
BRANCH   3  24
ATOM     24  O   UNL     1       4.991  -7.371  27.540  0.00  0.00    +0.000 OA
ATOM     25  H   UNL     1       4.186  -7.888  27.693  0.00  0.00    +0.000 HD
ENDBRANCH   3  24
TORSDOF 5
ENDMDL
MODEL 5
REMARK VINA RESULT:      -7.0      2.420      7.150
REMARK  Name = 
REMARK  5 active torsions:
REMARK  status: ('A' for Active; 'I' for Inactive)
REMARK    1  A    between atoms: O_1  and  C_2
REMARK    2  A    between atoms: C_4  and  O_5
REMARK    3  A    between atoms: C_10  and  C_14
REMARK    4  A    between atoms: C_17  and  O_18
REMARK    5  A    between atoms: C_19  and  O_20
REMARK                            x       y       z     vdW  Elec       q    Type
REMARK                         _______ _______ _______ _____ _____    ______ ____
ROOT
ATOM      1  C   UNL     1       4.924  -4.772  23.515  0.00  0.00    +0.000 A 
ATOM      2  C   UNL     1       5.342  -5.593  24.558  0.00  0.00    +0.000 A 
ATOM      3  C   UNL     1       6.404  -5.181  25.368  0.00  0.00    +0.000 A 
ATOM      4  C   UNL     1       7.046  -3.954  25.130  0.00  0.00    +0.000 A 
ATOM      5  C   UNL     1       8.187  -3.477  25.946  0.00  0.00    +0.000 A 
ATOM      6  O   UNL     1       8.638  -4.059  26.925  0.00  0.00    +0.000 OA
ATOM      7  C   UNL     1       8.812  -2.213  25.521  0.00  0.00    +0.000 A 
ATOM      8  C   UNL     1       8.297  -1.540  24.489  0.00  0.00    +0.000 A 
ATOM      9  O   UNL     1       7.187  -1.932  23.766  0.00  0.00    +0.000 OA
ATOM     10  C   UNL     1       6.610  -3.144  24.078  0.00  0.00    +0.000 A 
ATOM     11  C   UNL     1       5.545  -3.551  23.271  0.00  0.00    +0.000 A 
ENDROOT
BRANCH   8  12
ATOM     12  C   UNL     1       8.937  -0.298  24.034  0.00  0.00    +0.000 A 
ATOM     13  C   UNL     1       9.975   0.290  24.777  0.00  0.00    +0.000 A 
ATOM     14  C   UNL     1      10.633   1.434  24.307  0.00  0.00    +0.000 A 
ATOM     15  C   UNL     1      10.249   1.985  23.089  0.00  0.00    +0.000 A 
ATOM     16  C   UNL     1       9.219   1.407  22.352  0.00  0.00    +0.000 A 
ATOM     17  C   UNL     1       8.559   0.276  22.813  0.00  0.00    +0.000 A 
BRANCH  15  18
ATOM     18  O   UNL     1      10.860   3.092  22.568  0.00  0.00    +0.000 OA
ATOM     19  H   UNL     1      10.537   3.874  23.048  0.00  0.00    +0.000 HD
ENDBRANCH  15  18
BRANCH  16  20
ATOM     20  O   UNL     1       8.853   1.947  21.152  0.00  0.00    +0.000 OA
ATOM     21  H   UNL     1       7.875   1.961  21.174  0.00  0.00    +0.000 HD
ENDBRANCH  16  20
ENDBRANCH   8  12
BRANCH   1  22
ATOM     22  O   UNL     1       3.897  -5.138  22.695  0.00  0.00    +0.000 OA
ATOM     23  H   UNL     1       4.158  -5.917  22.177  0.00  0.00    +0.000 HD
ENDBRANCH   1  22
BRANCH   3  24
ATOM     24  O   UNL     1       6.809  -5.996  26.387  0.00  0.00    +0.000 OA
ATOM     25  H   UNL     1       7.711  -5.781  26.668  0.00  0.00    +0.000 HD
ENDBRANCH   3  24
TORSDOF 5
ENDMDL
MODEL 6
REMARK VINA RESULT:      -6.9      1.760      1.899
REMARK  Name = 
REMARK  5 active torsions:
REMARK  status: ('A' for Active; 'I' for Inactive)
REMARK    1  A    between atoms: O_1  and  C_2
REMARK    2  A    between atoms: C_4  and  O_5
REMARK    3  A    between atoms: C_10  and  C_14
REMARK    4  A    between atoms: C_17  and  O_18
REMARK    5  A    between atoms: C_19  and  O_20
REMARK                            x       y       z     vdW  Elec       q    Type
REMARK                         _______ _______ _______ _____ _____    ______ ____
ROOT
ATOM      1  C   UNL     1       6.709   2.788  22.467  0.00  0.00    +0.000 A 
ATOM      2  C   UNL     1       7.879   3.543  22.466  0.00  0.00    +0.000 A 
ATOM      3  C   UNL     1       9.050   2.985  22.986  0.00  0.00    +0.000 A 
ATOM      4  C   UNL     1       9.047   1.681  23.508  0.00  0.00    +0.000 A 
ATOM      5  C   UNL     1      10.256   1.049  24.088  0.00  0.00    +0.000 A 
ATOM      6  O   UNL     1      11.367   1.561  24.116  0.00  0.00    +0.000 OA
ATOM      7  C   UNL     1      10.075  -0.290  24.674  0.00  0.00    +0.000 A 
ATOM      8  C   UNL     1       8.881  -0.885  24.603  0.00  0.00    +0.000 A 
ATOM      9  O   UNL     1       7.765  -0.341  23.997  0.00  0.00    +0.000 OA
ATOM     10  C   UNL     1       7.862   0.940  23.498  0.00  0.00    +0.000 A 
ATOM     11  C   UNL     1       6.692   1.493  22.972  0.00  0.00    +0.000 A 
ENDROOT
BRANCH   8  12
ATOM     12  C   UNL     1       8.682  -2.204  25.218  0.00  0.00    +0.000 A 
ATOM     13  C   UNL     1       7.696  -2.397  26.200  0.00  0.00    +0.000 A 
ATOM     14  C   UNL     1       7.458  -3.671  26.735  0.00  0.00    +0.000 A 
ATOM     15  C   UNL     1       8.210  -4.748  26.281  0.00  0.00    +0.000 A 
ATOM     16  C   UNL     1       9.190  -4.559  25.310  0.00  0.00    +0.000 A 
ATOM     17  C   UNL     1       9.435  -3.300  24.778  0.00  0.00    +0.000 A 
BRANCH  15  18
ATOM     18  O   UNL     1       8.017  -6.017  26.751  0.00  0.00    +0.000 OA
ATOM     19  H   UNL     1       8.887  -6.437  26.863  0.00  0.00    +0.000 HD
ENDBRANCH  15  18
BRANCH  16  20
ATOM     20  O   UNL     1       9.919  -5.624  24.860  0.00  0.00    +0.000 OA
ATOM     21  H   UNL     1       9.924  -5.527  23.887  0.00  0.00    +0.000 HD
ENDBRANCH  16  20
ENDBRANCH   8  12
BRANCH   1  22
ATOM     22  O   UNL     1       5.542   3.295  21.975  0.00  0.00    +0.000 OA
ATOM     23  H   UNL     1       5.416   2.990  21.062  0.00  0.00    +0.000 HD
ENDBRANCH   1  22
BRANCH   3  24
ATOM     24  O   UNL     1      10.192   3.735  22.985  0.00  0.00    +0.000 OA
ATOM     25  H   UNL     1      10.826   3.405  22.330  0.00  0.00    +0.000 HD
ENDBRANCH   3  24
TORSDOF 5
ENDMDL
MODEL 7
REMARK VINA RESULT:      -6.9      2.768      7.170
REMARK  Name = 
REMARK  5 active torsions:
REMARK  status: ('A' for Active; 'I' for Inactive)
REMARK    1  A    between atoms: O_1  and  C_2
REMARK    2  A    between atoms: C_4  and  O_5
REMARK    3  A    between atoms: C_10  and  C_14
REMARK    4  A    between atoms: C_17  and  O_18
REMARK    5  A    between atoms: C_19  and  O_20
REMARK                            x       y       z     vdW  Elec       q    Type
REMARK                         _______ _______ _______ _____ _____    ______ ____
ROOT
ATOM      1  C   UNL     1       5.313  -4.380  22.920  0.00  0.00    +0.000 A 
ATOM      2  C   UNL     1       6.367  -5.257  23.165  0.00  0.00    +0.000 A 
ATOM      3  C   UNL     1       7.628  -4.738  23.468  0.00  0.00    +0.000 A 
ATOM      4  C   UNL     1       7.834  -3.350  23.521  0.00  0.00    +0.000 A 
ATOM      5  C   UNL     1       9.154  -2.747  23.820  0.00  0.00    +0.000 A 
ATOM      6  O   UNL     1      10.163  -3.380  24.105  0.00  0.00    +0.000 OA
ATOM      7  C   UNL     1       9.233  -1.278  23.754  0.00  0.00    +0.000 A 
ATOM      8  C   UNL     1       8.128  -0.571  23.498  0.00  0.00    +0.000 A 
ATOM      9  O   UNL     1       6.875  -1.114  23.294  0.00  0.00    +0.000 OA
ATOM     10  C   UNL     1       6.762  -2.487  23.273  0.00  0.00    +0.000 A 
ATOM     11  C   UNL     1       5.498  -3.003  22.976  0.00  0.00    +0.000 A 
ENDROOT
BRANCH   8  12
ATOM     12  C   UNL     1       8.205   0.893  23.393  0.00  0.00    +0.000 A 
ATOM     13  C   UNL     1       9.254   1.603  24.001  0.00  0.00    +0.000 A 
ATOM     14  C   UNL     1       9.366   2.991  23.840  0.00  0.00    +0.000 A 
ATOM     15  C   UNL     1       8.426   3.662  23.067  0.00  0.00    +0.000 A 
ATOM     16  C   UNL     1       7.384   2.961  22.466  0.00  0.00    +0.000 A 
ATOM     17  C   UNL     1       7.263   1.587  22.623  0.00  0.00    +0.000 A 
BRANCH  15  18
ATOM     18  O   UNL     1       8.488   5.012  22.859  0.00  0.00    +0.000 OA
ATOM     19  H   UNL     1       8.267   5.188  21.929  0.00  0.00    +0.000 HD
ENDBRANCH  15  18
BRANCH  16  20
ATOM     20  O   UNL     1       6.469   3.625  21.698  0.00  0.00    +0.000 OA
ATOM     21  H   UNL     1       6.906   4.469  21.465  0.00  0.00    +0.000 HD
ENDBRANCH  16  20
ENDBRANCH   8  12
BRANCH   1  22
ATOM     22  O   UNL     1       4.067  -4.842  22.613  0.00  0.00    +0.000 OA
ATOM     23  H   UNL     1       3.404  -4.179  22.869  0.00  0.00    +0.000 HD
ENDBRANCH   1  22
BRANCH   3  24
ATOM     24  O   UNL     1       8.657  -5.607  23.703  0.00  0.00    +0.000 OA
ATOM     25  H   UNL     1       8.423  -6.506  23.428  0.00  0.00    +0.000 HD
ENDBRANCH   3  24
TORSDOF 5
ENDMDL
MODEL 8
REMARK VINA RESULT:      -6.8      2.605      4.400
REMARK  Name = 
REMARK  5 active torsions:
REMARK  status: ('A' for Active; 'I' for Inactive)
REMARK    1  A    between atoms: O_1  and  C_2
REMARK    2  A    between atoms: C_4  and  O_5
REMARK    3  A    between atoms: C_10  and  C_14
REMARK    4  A    between atoms: C_17  and  O_18
REMARK    5  A    between atoms: C_19  and  O_20
REMARK                            x       y       z     vdW  Elec       q    Type
REMARK                         _______ _______ _______ _____ _____    ______ ____
ROOT
ATOM      1  C   UNL     1       9.205  -0.879  22.034  0.00  0.00    +0.000 A 
ATOM      2  C   UNL     1       9.741  -0.120  23.071  0.00  0.00    +0.000 A 
ATOM      3  C   UNL     1       9.466  -0.482  24.393  0.00  0.00    +0.000 A 
ATOM      4  C   UNL     1       8.656  -1.594  24.673  0.00  0.00    +0.000 A 
ATOM      5  C   UNL     1       8.319  -2.010  26.055  0.00  0.00    +0.000 A 
ATOM      6  O   UNL     1       8.750  -1.478  27.070  0.00  0.00    +0.000 OA
ATOM      7  C   UNL     1       7.389  -3.144  26.188  0.00  0.00    +0.000 A 
ATOM      8  C   UNL     1       6.952  -3.769  25.091  0.00  0.00    +0.000 A 
ATOM      9  O   UNL     1       7.318  -3.442  23.799  0.00  0.00    +0.000 OA
ATOM     10  C   UNL     1       8.129  -2.343  23.617  0.00  0.00    +0.000 A 
ATOM     11  C   UNL     1       8.408  -1.988  22.295  0.00  0.00    +0.000 A 
ENDROOT
BRANCH   8  12
ATOM     12  C   UNL     1       5.994  -4.876  25.212  0.00  0.00    +0.000 A 
ATOM     13  C   UNL     1       5.211  -5.272  24.114  0.00  0.00    +0.000 A 
ATOM     14  C   UNL     1       4.350  -6.374  24.208  0.00  0.00    +0.000 A 
ATOM     15  C   UNL     1       4.279  -7.078  25.405  0.00  0.00    +0.000 A 
ATOM     16  C   UNL     1       5.051  -6.686  26.495  0.00  0.00    +0.000 A 
ATOM     17  C   UNL     1       5.904  -5.593  26.411  0.00  0.00    +0.000 A 
BRANCH  15  18
ATOM     18  O   UNL     1       3.470  -8.169  25.558  0.00  0.00    +0.000 OA
ATOM     19  H   UNL     1       2.705  -8.068  24.965  0.00  0.00    +0.000 HD
ENDBRANCH  15  18
BRANCH  16  20
ATOM     20  O   UNL     1       4.985  -7.388  27.666  0.00  0.00    +0.000 OA
ATOM     21  H   UNL     1       4.738  -6.724  28.340  0.00  0.00    +0.000 HD
ENDBRANCH  16  20
ENDBRANCH   8  12
BRANCH   1  22
ATOM     22  O   UNL     1       9.441  -0.559  20.729  0.00  0.00    +0.000 OA
ATOM     23  H   UNL     1       9.588  -1.372  20.218  0.00  0.00    +0.000 HD
ENDBRANCH   1  22
BRANCH   3  24
ATOM     24  O   UNL     1       9.993   0.272  25.403  0.00  0.00    +0.000 OA
ATOM     25  H   UNL     1       9.654   1.180  25.375  0.00  0.00    +0.000 HD
ENDBRANCH   3  24
TORSDOF 5
ENDMDL
MODEL 9
REMARK VINA RESULT:      -6.7      1.680      7.117
REMARK  Name = 
REMARK  5 active torsions:
REMARK  status: ('A' for Active; 'I' for Inactive)
REMARK    1  A    between atoms: O_1  and  C_2
REMARK    2  A    between atoms: C_4  and  O_5
REMARK    3  A    between atoms: C_10  and  C_14
REMARK    4  A    between atoms: C_17  and  O_18
REMARK    5  A    between atoms: C_19  and  O_20
REMARK                            x       y       z     vdW  Elec       q    Type
REMARK                         _______ _______ _______ _____ _____    ______ ____
ROOT
ATOM      1  C   UNL     1       8.811  -5.083  25.289  0.00  0.00    +0.000 A 
ATOM      2  C   UNL     1       7.478  -5.390  25.549  0.00  0.00    +0.000 A 
ATOM      3  C   UNL     1       6.510  -4.391  25.415  0.00  0.00    +0.000 A 
ATOM      4  C   UNL     1       6.876  -3.092  25.028  0.00  0.00    +0.000 A 
ATOM      5  C   UNL     1       5.893  -1.992  24.888  0.00  0.00    +0.000 A 
ATOM      6  O   UNL     1       4.683  -2.113  25.033  0.00  0.00    +0.000 OA
ATOM      7  C   UNL     1       6.439  -0.664  24.560  0.00  0.00    +0.000 A 
ATOM      8  C   UNL     1       7.751  -0.527  24.346  0.00  0.00    +0.000 A 
ATOM      9  O   UNL     1       8.670  -1.557  24.396  0.00  0.00    +0.000 OA
ATOM     10  C   UNL     1       8.220  -2.805  24.771  0.00  0.00    +0.000 A 
ATOM     11  C   UNL     1       9.188  -3.803  24.897  0.00  0.00    +0.000 A 
ENDROOT
BRANCH   8  12
ATOM     12  C   UNL     1       8.310   0.800  24.055  0.00  0.00    +0.000 A 
ATOM     13  C   UNL     1       8.141   1.865  24.958  0.00  0.00    +0.000 A 
ATOM     14  C   UNL     1       8.735   3.110  24.715  0.00  0.00    +0.000 A 
ATOM     15  C   UNL     1       9.500   3.284  23.567  0.00  0.00    +0.000 A 
ATOM     16  C   UNL     1       9.666   2.233  22.670  0.00  0.00    +0.000 A 
ATOM     17  C   UNL     1       9.078   0.996  22.900  0.00  0.00    +0.000 A 
BRANCH  15  18
ATOM     18  O   UNL     1      10.118   4.470  23.280  0.00  0.00    +0.000 OA
ATOM     19  H   UNL     1      10.401   4.877  24.116  0.00  0.00    +0.000 HD
ENDBRANCH  15  18
BRANCH  16  20
ATOM     20  O   UNL     1      10.428   2.407  21.548  0.00  0.00    +0.000 OA
ATOM     21  H   UNL     1      10.476   3.377  21.429  0.00  0.00    +0.000 HD
ENDBRANCH  16  20
ENDBRANCH   8  12
BRANCH   1  22
ATOM     22  O   UNL     1       9.790  -6.024  25.414  0.00  0.00    +0.000 OA
ATOM     23  H   UNL     1       9.385  -6.896  25.555  0.00  0.00    +0.000 HD
ENDBRANCH   1  22
BRANCH   3  24
ATOM     24  O   UNL     1       5.205  -4.702  25.676  0.00  0.00    +0.000 OA
ATOM     25  H   UNL     1       4.696  -3.908  25.903  0.00  0.00    +0.000 HD
ENDBRANCH   3  24
TORSDOF 5
ENDMDL
