MODEL 1
REMARK VINA RESULT:      -7.4      0.000      0.000
REMARK  Name = 
REMARK  17 active torsions:
REMARK  status: ('A' for Active; 'I' for Inactive)
REMARK    1  A    between atoms: C_1  and  C_2
REMARK    2  A    between atoms: C_2  and  C_3
REMARK    3  A    between atoms: C_2  and  C_4
REMARK    4  A    between atoms: C_7  and  C_8
REMARK    5  A    between atoms: C_9  and  C_20
REMARK    6  A    between atoms: C_10  and  O_11
REMARK    7  A    between atoms: C_13  and  C_14
REMARK    8  A    between atoms: C_16  and  O_17
REMARK    9  A    between atoms: C_18  and  O_19
REMARK   10  A    between atoms: C_21  and  O_22
REMARK   11  A    between atoms: C_24  and  C_25
REMARK   12  A    between atoms: C_27  and  O_28
REMARK   13  A    between atoms: C_29  and  O_30
REMARK   14  A    between atoms: C_31  and  C_32
REMARK   15  A    between atoms: C_32  and  C_33
REMARK   16  A    between atoms: C_32  and  C_34
REMARK   17  A    between atoms: C_37  and  C_38
REMARK                            x       y       z     vdW  Elec       q    Type
REMARK                         _______ _______ _______ _____ _____    ______ ____
ROOT
ATOM      1  C   UNL     1       8.950   4.784  23.736  0.00  0.00    +0.000 A 
ATOM      2  C   UNL     1       8.563   3.397  23.717  0.00  0.00    +0.000 A 
ATOM      3  C   UNL     1       9.405   2.393  24.237  0.00  0.00    +0.000 A 
ATOM      4  C   UNL     1       9.079   1.019  24.295  0.00  0.00    +0.000 A 
ATOM      5  C   UNL     1      10.132   0.138  24.937  0.00  0.00    +0.000 C 
ATOM      6  C   UNL     1       7.878   0.558  23.708  0.00  0.00    +0.000 A 
ATOM      7  C   UNL     1       7.081   1.559  23.086  0.00  0.00    +0.000 A 
ATOM      8  C   UNL     1       7.324   2.979  23.151  0.00  0.00    +0.000 A 
ATOM      9  C   UNL     1       6.446   4.001  22.661  0.00  0.00    +0.000 A 
ATOM     10  C   UNL     1       6.865   5.334  22.610  0.00  0.00    +0.000 A 
ATOM     11  C   UNL     1       8.107   5.704  23.108  0.00  0.00    +0.000 A 
ENDROOT
BRANCH   6  12
ATOM     12  C   UNL     1       7.487  -0.904  23.703  0.00  0.00    +0.000 A 
ATOM     13  C   UNL     1       6.574  -1.420  24.660  0.00  0.00    +0.000 A 
ATOM     14  C   UNL     1       5.958  -2.715  24.605  0.00  0.00    +0.000 A 
ATOM     15  C   UNL     1       4.879  -3.139  25.439  0.00  0.00    +0.000 A 
ATOM     16  C   UNL     1       4.466  -4.478  25.430  0.00  0.00    +0.000 A 
ATOM     17  C   UNL     1       5.040  -5.389  24.561  0.00  0.00    +0.000 A 
ATOM     18  C   UNL     1       5.992  -5.004  23.614  0.00  0.00    +0.000 A 
ATOM     19  C   UNL     1       6.479  -3.647  23.662  0.00  0.00    +0.000 A 
ATOM     20  C   UNL     1       7.502  -3.178  22.807  0.00  0.00    +0.000 A 
ATOM     21  C   UNL     1       7.977  -1.846  22.769  0.00  0.00    +0.000 A 
ATOM     22  C   UNL     1       9.066  -1.579  21.756  0.00  0.00    +0.000 C 
BRANCH  18  23
ATOM     23  C   UNL     1       6.522  -6.017  22.585  0.00  0.00    +0.000 C 
ATOM     24  C   UNL     1       6.068  -5.633  21.176  0.00  0.00    +0.000 C 
ATOM     25  C   UNL     1       8.037  -6.290  22.600  0.00  0.00    +0.000 C 
ENDBRANCH  18  23
BRANCH  15  26
ATOM     26  C   UNL     1       4.081  -2.194  26.263  0.00  0.00    +0.000 C 
ATOM     27  O   UNL     1       2.885  -2.006  26.031  0.00  0.00    +0.000 OA
ENDBRANCH  15  26
BRANCH  16  28
ATOM     28  O   UNL     1       3.469  -4.980  26.239  0.00  0.00    +0.000 OA
ATOM     29  H   UNL     1       3.854  -5.707  26.785  0.00  0.00    +0.000 HD
ENDBRANCH  16  28
BRANCH  17  30
ATOM     30  O   UNL     1       4.631  -6.690  24.680  0.00  0.00    +0.000 OA
ATOM     31  H   UNL     1       4.718  -6.894  25.635  0.00  0.00    +0.000 HD
ENDBRANCH  17  30
BRANCH  13  32
ATOM     32  O   UNL     1       6.350  -0.695  25.817  0.00  0.00    +0.000 OA
ATOM     33  H   UNL     1       5.647  -1.115  26.343  0.00  0.00    +0.000 HD
ENDBRANCH  13  32
ENDBRANCH   6  12
BRANCH   1  35
ATOM     34  C   UNL     1      11.336   5.522  23.360  0.00  0.00    +0.000 C 
ATOM     35  C   UNL     1      10.253   5.249  24.407  0.00  0.00    +0.000 C 
ATOM     36  C   UNL     1      10.142   6.441  25.371  0.00  0.00    +0.000 C 
ENDBRANCH   1  35
BRANCH  10  37
ATOM     37  O   UNL     1       6.112   6.369  22.097  0.00  0.00    +0.000 OA
ATOM     38  H   UNL     1       6.575   6.707  21.294  0.00  0.00    +0.000 HD
ENDBRANCH  10  37
BRANCH  11  39
ATOM     39  O   UNL     1       8.468   7.015  22.957  0.00  0.00    +0.000 OA
ATOM     40  H   UNL     1       8.485   7.162  21.987  0.00  0.00    +0.000 HD
ENDBRANCH  11  39
BRANCH   7  41
ATOM     41  O   UNL     1       6.068   1.165  22.235  0.00  0.00    +0.000 OA
ATOM     42  H   UNL     1       5.794   1.916  21.681  0.00  0.00    +0.000 HD
ENDBRANCH   7  41
BRANCH   9  43
ATOM     43  C   UNL     1       5.039   3.730  22.266  0.00  0.00    +0.000 C 
ATOM     44  O   UNL     1       4.197   3.416  23.108  0.00  0.00    +0.000 OA
ENDBRANCH   9  43
TORSDOF 11
ENDMDL
MODEL 2
REMARK VINA RESULT:      -7.2      1.641      8.951
REMARK  Name = 
REMARK  17 active torsions:
REMARK  status: ('A' for Active; 'I' for Inactive)
REMARK    1  A    between atoms: C_1  and  C_2
REMARK    2  A    between atoms: C_2  and  C_3
REMARK    3  A    between atoms: C_2  and  C_4
REMARK    4  A    between atoms: C_7  and  C_8
REMARK    5  A    between atoms: C_9  and  C_20
REMARK    6  A    between atoms: C_10  and  O_11
REMARK    7  A    between atoms: C_13  and  C_14
REMARK    8  A    between atoms: C_16  and  O_17
REMARK    9  A    between atoms: C_18  and  O_19
REMARK   10  A    between atoms: C_21  and  O_22
REMARK   11  A    between atoms: C_24  and  C_25
REMARK   12  A    between atoms: C_27  and  O_28
REMARK   13  A    between atoms: C_29  and  O_30
REMARK   14  A    between atoms: C_31  and  C_32
REMARK   15  A    between atoms: C_32  and  C_33
REMARK   16  A    between atoms: C_32  and  C_34
REMARK   17  A    between atoms: C_37  and  C_38
REMARK                            x       y       z     vdW  Elec       q    Type
REMARK                         _______ _______ _______ _____ _____    ______ ____
ROOT
ATOM      1  C   UNL     1       5.858  -4.608  26.337  0.00  0.00    +0.000 A 
ATOM      2  C   UNL     1       6.326  -3.338  25.846  0.00  0.00    +0.000 A 
ATOM      3  C   UNL     1       6.583  -2.262  26.721  0.00  0.00    +0.000 A 
ATOM      4  C   UNL     1       7.084  -1.003  26.322  0.00  0.00    +0.000 A 
ATOM      5  C   UNL     1       7.318  -0.021  27.452  0.00  0.00    +0.000 C 
ATOM      6  C   UNL     1       7.258  -0.720  24.947  0.00  0.00    +0.000 A 
ATOM      7  C   UNL     1       6.892  -1.770  24.059  0.00  0.00    +0.000 A 
ATOM      8  C   UNL     1       6.525  -3.108  24.454  0.00  0.00    +0.000 A 
ATOM      9  C   UNL     1       6.307  -4.212  23.566  0.00  0.00    +0.000 A 
ATOM     10  C   UNL     1       5.776  -5.414  24.043  0.00  0.00    +0.000 A 
ATOM     11  C   UNL     1       5.527  -5.588  25.398  0.00  0.00    +0.000 A 
ENDROOT
BRANCH   6  12
ATOM     12  C   UNL     1       7.755   0.620  24.451  0.00  0.00    +0.000 A 
ATOM     13  C   UNL     1       6.871   1.545  23.835  0.00  0.00    +0.000 A 
ATOM     14  C   UNL     1       7.176   2.917  23.546  0.00  0.00    +0.000 A 
ATOM     15  C   UNL     1       6.219   3.895  23.138  0.00  0.00    +0.000 A 
ATOM     16  C   UNL     1       6.643   5.160  22.709  0.00  0.00    +0.000 A 
ATOM     17  C   UNL     1       7.981   5.508  22.749  0.00  0.00    +0.000 A 
ATOM     18  C   UNL     1       8.949   4.653  23.282  0.00  0.00    +0.000 A 
ATOM     19  C   UNL     1       8.537   3.322  23.657  0.00  0.00    +0.000 A 
ATOM     20  C   UNL     1       9.451   2.350  24.126  0.00  0.00    +0.000 A 
ATOM     21  C   UNL     1       9.096   1.052  24.563  0.00  0.00    +0.000 A 
ATOM     22  C   UNL     1      10.247   0.196  25.038  0.00  0.00    +0.000 C 
BRANCH  18  23
ATOM     23  C   UNL     1      10.409   5.117  23.421  0.00  0.00    +0.000 C 
ATOM     24  C   UNL     1      10.582   5.962  24.684  0.00  0.00    +0.000 C 
ATOM     25  C   UNL     1      11.491   4.024  23.360  0.00  0.00    +0.000 C 
ENDBRANCH  18  23
BRANCH  15  26
ATOM     26  C   UNL     1       4.752   3.676  23.240  0.00  0.00    +0.000 C 
ATOM     27  O   UNL     1       4.074   3.459  22.235  0.00  0.00    +0.000 OA
ENDBRANCH  15  26
BRANCH  16  28
ATOM     28  O   UNL     1       5.791   6.142  22.251  0.00  0.00    +0.000 OA
ATOM     29  H   UNL     1       5.102   6.297  22.942  0.00  0.00    +0.000 HD
ENDBRANCH  16  28
BRANCH  17  30
ATOM     30  O   UNL     1       8.312   6.733  22.235  0.00  0.00    +0.000 OA
ATOM     31  H   UNL     1       8.536   7.281  23.016  0.00  0.00    +0.000 HD
ENDBRANCH  17  30
BRANCH  13  32
ATOM     32  O   UNL     1       5.667   1.078  23.338  0.00  0.00    +0.000 OA
ATOM     33  H   UNL     1       5.222   1.780  22.830  0.00  0.00    +0.000 HD
ENDBRANCH  13  32
ENDBRANCH   6  12
BRANCH   1  35
ATOM     34  C   UNL     1       4.229  -4.939  28.239  0.00  0.00    +0.000 C 
ATOM     35  C   UNL     1       5.706  -4.885  27.842  0.00  0.00    +0.000 C 
ATOM     36  C   UNL     1       6.443  -6.117  28.392  0.00  0.00    +0.000 C 
ENDBRANCH   1  35
BRANCH  10  37
ATOM     37  O   UNL     1       5.476  -6.503  23.252  0.00  0.00    +0.000 OA
ATOM     38  H   UNL     1       5.691  -6.263  22.319  0.00  0.00    +0.000 HD
ENDBRANCH  10  37
BRANCH  11  39
ATOM     39  O   UNL     1       4.943  -6.767  25.772  0.00  0.00    +0.000 OA
ATOM     40  H   UNL     1       4.941  -7.317  24.960  0.00  0.00    +0.000 HD
ENDBRANCH  11  39
BRANCH   7  41
ATOM     41  O   UNL     1       6.737  -1.480  22.718  0.00  0.00    +0.000 OA
ATOM     42  H   UNL     1       5.867  -1.790  22.414  0.00  0.00    +0.000 HD
ENDBRANCH   7  41
BRANCH   9  43
ATOM     43  C   UNL     1       6.702  -4.180  22.133  0.00  0.00    +0.000 C 
ATOM     44  O   UNL     1       5.852  -4.096  21.247  0.00  0.00    +0.000 OA
ENDBRANCH   9  43
TORSDOF 11
ENDMDL
MODEL 3
REMARK VINA RESULT:      -7.2      2.179      9.301
REMARK  Name = 
REMARK  17 active torsions:
REMARK  status: ('A' for Active; 'I' for Inactive)
REMARK    1  A    between atoms: C_1  and  C_2
REMARK    2  A    between atoms: C_2  and  C_3
REMARK    3  A    between atoms: C_2  and  C_4
REMARK    4  A    between atoms: C_7  and  C_8
REMARK    5  A    between atoms: C_9  and  C_20
REMARK    6  A    between atoms: C_10  and  O_11
REMARK    7  A    between atoms: C_13  and  C_14
REMARK    8  A    between atoms: C_16  and  O_17
REMARK    9  A    between atoms: C_18  and  O_19
REMARK   10  A    between atoms: C_21  and  O_22
REMARK   11  A    between atoms: C_24  and  C_25
REMARK   12  A    between atoms: C_27  and  O_28
REMARK   13  A    between atoms: C_29  and  O_30
REMARK   14  A    between atoms: C_31  and  C_32
REMARK   15  A    between atoms: C_32  and  C_33
REMARK   16  A    between atoms: C_32  and  C_34
REMARK   17  A    between atoms: C_37  and  C_38
REMARK                            x       y       z     vdW  Elec       q    Type
REMARK                         _______ _______ _______ _____ _____    ______ ____
ROOT
ATOM      1  C   UNL     1       4.934  -4.800  26.008  0.00  0.00    +0.000 A 
ATOM      2  C   UNL     1       5.390  -3.469  25.705  0.00  0.00    +0.000 A 
ATOM      3  C   UNL     1       5.455  -2.471  26.698  0.00  0.00    +0.000 A 
ATOM      4  C   UNL     1       5.932  -1.157  26.490  0.00  0.00    +0.000 A 
ATOM      5  C   UNL     1       5.942  -0.277  27.724  0.00  0.00    +0.000 C 
ATOM      6  C   UNL     1       6.283  -0.737  25.186  0.00  0.00    +0.000 A 
ATOM      7  C   UNL     1       6.113  -1.713  24.165  0.00  0.00    +0.000 A 
ATOM      8  C   UNL     1       5.773  -3.098  24.383  0.00  0.00    +0.000 A 
ATOM      9  C   UNL     1       5.751  -4.121  23.380  0.00  0.00    +0.000 A 
ATOM     10  C   UNL     1       5.230  -5.387  23.665  0.00  0.00    +0.000 A 
ATOM     11  C   UNL     1       4.800  -5.701  24.948  0.00  0.00    +0.000 A 
ENDROOT
BRANCH   6  12
ATOM     12  C   UNL     1       6.766   0.666  24.889  0.00  0.00    +0.000 A 
ATOM     13  C   UNL     1       8.151   0.950  24.760  0.00  0.00    +0.000 A 
ATOM     14  C   UNL     1       8.702   2.174  24.252  0.00  0.00    +0.000 A 
ATOM     15  C   UNL     1      10.076   2.370  23.914  0.00  0.00    +0.000 A 
ATOM     16  C   UNL     1      10.548   3.650  23.596  0.00  0.00    +0.000 A 
ATOM     17  C   UNL     1       9.681   4.726  23.527  0.00  0.00    +0.000 A 
ATOM     18  C   UNL     1       8.303   4.574  23.695  0.00  0.00    +0.000 A 
ATOM     19  C   UNL     1       7.814   3.277  24.096  0.00  0.00    +0.000 A 
ATOM     20  C   UNL     1       6.449   3.035  24.376  0.00  0.00    +0.000 A 
ATOM     21  C   UNL     1       5.905   1.774  24.714  0.00  0.00    +0.000 A 
ATOM     22  C   UNL     1       4.412   1.759  24.952  0.00  0.00    +0.000 C 
BRANCH  18  23
ATOM     23  C   UNL     1       7.355   5.768  23.494  0.00  0.00    +0.000 C 
ATOM     24  C   UNL     1       7.593   6.825  24.574  0.00  0.00    +0.000 C 
ATOM     25  C   UNL     1       7.351   6.422  22.101  0.00  0.00    +0.000 C 
ENDBRANCH  18  23
BRANCH  15  26
ATOM     26  C   UNL     1      11.038   1.245  23.778  0.00  0.00    +0.000 C 
ATOM     27  O   UNL     1      11.621   0.789  24.763  0.00  0.00    +0.000 OA
ENDBRANCH  15  26
BRANCH  16  28
ATOM     28  O   UNL     1      11.866   3.934  23.309  0.00  0.00    +0.000 OA
ATOM     29  H   UNL     1      12.218   4.517  24.025  0.00  0.00    +0.000 HD
ENDBRANCH  16  28
BRANCH  17  30
ATOM     30  O   UNL     1      10.243   5.952  23.290  0.00  0.00    +0.000 OA
ATOM     31  H   UNL     1       9.781   6.563  23.902  0.00  0.00    +0.000 HD
ENDBRANCH  17  30
BRANCH  13  32
ATOM     32  O   UNL     1       9.062   0.051  25.284  0.00  0.00    +0.000 OA
ATOM     33  H   UNL     1       9.627   0.494  25.941  0.00  0.00    +0.000 HD
ENDBRANCH  13  32
ENDBRANCH   6  12
BRANCH   1  35
ATOM     34  C   UNL     1       3.069  -5.337  27.624  0.00  0.00    +0.000 C 
ATOM     35  C   UNL     1       4.584  -5.226  27.443  0.00  0.00    +0.000 C 
ATOM     36  C   UNL     1       5.270  -6.498  27.969  0.00  0.00    +0.000 C 
ENDBRANCH   1  35
BRANCH  10  37
ATOM     37  O   UNL     1       5.112  -6.407  22.746  0.00  0.00    +0.000 OA
ATOM     38  H   UNL     1       4.708  -7.181  23.208  0.00  0.00    +0.000 HD
ENDBRANCH  10  37
BRANCH  11  39
ATOM     39  O   UNL     1       4.240  -6.936  25.127  0.00  0.00    +0.000 OA
ATOM     40  H   UNL     1       4.857  -7.559  24.688  0.00  0.00    +0.000 HD
ENDBRANCH  11  39
BRANCH   7  41
ATOM     41  O   UNL     1       6.134  -1.304  22.847  0.00  0.00    +0.000 OA
ATOM     42  H   UNL     1       6.094  -0.333  22.804  0.00  0.00    +0.000 HD
ENDBRANCH   7  41
BRANCH   9  43
ATOM     43  C   UNL     1       6.345  -3.935  22.029  0.00  0.00    +0.000 C 
ATOM     44  O   UNL     1       5.627  -3.777  21.041  0.00  0.00    +0.000 OA
ENDBRANCH   9  43
TORSDOF 11
ENDMDL
MODEL 4
REMARK VINA RESULT:      -7.2      0.119      8.945
REMARK  Name = 
REMARK  17 active torsions:
REMARK  status: ('A' for Active; 'I' for Inactive)
REMARK    1  A    between atoms: C_1  and  C_2
REMARK    2  A    between atoms: C_2  and  C_3
REMARK    3  A    between atoms: C_2  and  C_4
REMARK    4  A    between atoms: C_7  and  C_8
REMARK    5  A    between atoms: C_9  and  C_20
REMARK    6  A    between atoms: C_10  and  O_11
REMARK    7  A    between atoms: C_13  and  C_14
REMARK    8  A    between atoms: C_16  and  O_17
REMARK    9  A    between atoms: C_18  and  O_19
REMARK   10  A    between atoms: C_21  and  O_22
REMARK   11  A    between atoms: C_24  and  C_25
REMARK   12  A    between atoms: C_27  and  O_28
REMARK   13  A    between atoms: C_29  and  O_30
REMARK   14  A    between atoms: C_31  and  C_32
REMARK   15  A    between atoms: C_32  and  C_33
REMARK   16  A    between atoms: C_32  and  C_34
REMARK   17  A    between atoms: C_37  and  C_38
REMARK                            x       y       z     vdW  Elec       q    Type
REMARK                         _______ _______ _______ _____ _____    ______ ____
ROOT
ATOM      1  C   UNL     1       6.018  -4.938  23.649  0.00  0.00    +0.000 A 
ATOM      2  C   UNL     1       6.459  -3.568  23.663  0.00  0.00    +0.000 A 
ATOM      3  C   UNL     1       7.459  -3.110  22.781  0.00  0.00    +0.000 A 
ATOM      4  C   UNL     1       7.914  -1.775  22.703  0.00  0.00    +0.000 A 
ATOM      5  C   UNL     1       8.969  -1.518  21.646  0.00  0.00    +0.000 C 
ATOM      6  C   UNL     1       7.435  -0.816  23.626  0.00  0.00    +0.000 A 
ATOM      7  C   UNL     1       6.507  -1.306  24.587  0.00  0.00    +0.000 A 
ATOM      8  C   UNL     1       5.921  -2.623  24.584  0.00  0.00    +0.000 A 
ATOM      9  C   UNL     1       4.873  -3.074  25.452  0.00  0.00    +0.000 A 
ATOM     10  C   UNL     1       4.509  -4.423  25.487  0.00  0.00    +0.000 A 
ATOM     11  C   UNL     1       5.099  -5.337  24.623  0.00  0.00    +0.000 A 
ENDROOT
BRANCH   6  12
ATOM     12  C   UNL     1       7.908   0.622  23.621  0.00  0.00    +0.000 A 
ATOM     13  C   UNL     1       7.145   1.640  22.991  0.00  0.00    +0.000 A 
ATOM     14  C   UNL     1       7.373   3.051  23.127  0.00  0.00    +0.000 A 
ATOM     15  C   UNL     1       6.475   4.067  22.679  0.00  0.00    +0.000 A 
ATOM     16  C   UNL     1       6.867   5.412  22.697  0.00  0.00    +0.000 A 
ATOM     17  C   UNL     1       8.093   5.784  23.220  0.00  0.00    +0.000 A 
ATOM     18  C   UNL     1       8.952   4.856  23.814  0.00  0.00    +0.000 A 
ATOM     19  C   UNL     1       8.594   3.461  23.735  0.00  0.00    +0.000 A 
ATOM     20  C   UNL     1       9.432   2.434  24.227  0.00  0.00    +0.000 A 
ATOM     21  C   UNL     1       9.107   1.057  24.231  0.00  0.00    +0.000 A 
ATOM     22  C   UNL     1      10.158   0.149  24.827  0.00  0.00    +0.000 C 
BRANCH  18  23
ATOM     23  C   UNL     1      10.253   5.320  24.491  0.00  0.00    +0.000 C 
ATOM     24  C   UNL     1      11.328   5.604  23.442  0.00  0.00    +0.000 C 
ATOM     25  C   UNL     1      10.140   6.501  25.471  0.00  0.00    +0.000 C 
ENDBRANCH  18  23
BRANCH  15  26
ATOM     26  C   UNL     1       5.072   3.780  22.278  0.00  0.00    +0.000 C 
ATOM     27  O   UNL     1       4.233   3.439  23.113  0.00  0.00    +0.000 OA
ENDBRANCH  15  26
BRANCH  16  28
ATOM     28  O   UNL     1       6.083   6.447  22.236  0.00  0.00    +0.000 OA
ATOM     29  H   UNL     1       6.569   6.898  21.504  0.00  0.00    +0.000 HD
ENDBRANCH  16  28
BRANCH  17  30
ATOM     30  O   UNL     1       8.425   7.108  23.121  0.00  0.00    +0.000 OA
ATOM     31  H   UNL     1       8.552   7.405  24.047  0.00  0.00    +0.000 HD
ENDBRANCH  17  30
BRANCH  13  32
ATOM     32  O   UNL     1       6.191   1.271  22.060  0.00  0.00    +0.000 OA
ATOM     33  H   UNL     1       5.310   1.564  22.352  0.00  0.00    +0.000 HD
ENDBRANCH  13  32
ENDBRANCH   6  12
BRANCH   1  35
ATOM     34  C   UNL     1       6.076  -5.571  21.204  0.00  0.00    +0.000 C 
ATOM     35  C   UNL     1       6.544  -5.945  22.613  0.00  0.00    +0.000 C 
ATOM     36  C   UNL     1       8.060  -6.202  22.613  0.00  0.00    +0.000 C 
ENDBRANCH   1  35
BRANCH  10  37
ATOM     37  O   UNL     1       3.559  -4.954  26.334  0.00  0.00    +0.000 OA
ATOM     38  H   UNL     1       2.695  -4.946  25.857  0.00  0.00    +0.000 HD
ENDBRANCH  10  37
BRANCH  11  39
ATOM     39  O   UNL     1       4.737  -6.648  24.769  0.00  0.00    +0.000 OA
ATOM     40  H   UNL     1       5.286  -7.135  24.119  0.00  0.00    +0.000 HD
ENDBRANCH  11  39
BRANCH   7  41
ATOM     41  O   UNL     1       6.230  -0.532  25.696  0.00  0.00    +0.000 OA
ATOM     42  H   UNL     1       5.488  -0.919  26.189  0.00  0.00    +0.000 HD
ENDBRANCH   7  41
BRANCH   9  43
ATOM     43  C   UNL     1       4.067  -2.146  26.288  0.00  0.00    +0.000 C 
ATOM     44  O   UNL     1       2.859  -2.010  26.094  0.00  0.00    +0.000 OA
ENDBRANCH   9  43
TORSDOF 11
ENDMDL
MODEL 5
REMARK VINA RESULT:      -7.1      2.203      4.110
REMARK  Name = 
REMARK  17 active torsions:
REMARK  status: ('A' for Active; 'I' for Inactive)
REMARK    1  A    between atoms: C_1  and  C_2
REMARK    2  A    between atoms: C_2  and  C_3
REMARK    3  A    between atoms: C_2  and  C_4
REMARK    4  A    between atoms: C_7  and  C_8
REMARK    5  A    between atoms: C_9  and  C_20
REMARK    6  A    between atoms: C_10  and  O_11
REMARK    7  A    between atoms: C_13  and  C_14
REMARK    8  A    between atoms: C_16  and  O_17
REMARK    9  A    between atoms: C_18  and  O_19
REMARK   10  A    between atoms: C_21  and  O_22
REMARK   11  A    between atoms: C_24  and  C_25
REMARK   12  A    between atoms: C_27  and  O_28
REMARK   13  A    between atoms: C_29  and  O_30
REMARK   14  A    between atoms: C_31  and  C_32
REMARK   15  A    between atoms: C_32  and  C_33
REMARK   16  A    between atoms: C_32  and  C_34
REMARK   17  A    between atoms: C_37  and  C_38
REMARK                            x       y       z     vdW  Elec       q    Type
REMARK                         _______ _______ _______ _____ _____    ______ ____
ROOT
ATOM      1  C   UNL     1       8.499   4.571  23.719  0.00  0.00    +0.000 A 
ATOM      2  C   UNL     1       8.007   3.265  24.072  0.00  0.00    +0.000 A 
ATOM      3  C   UNL     1       6.641   3.043  24.341  0.00  0.00    +0.000 A 
ATOM      4  C   UNL     1       6.076   1.786  24.650  0.00  0.00    +0.000 A 
ATOM      5  C   UNL     1       4.575   1.793  24.860  0.00  0.00    +0.000 C 
ATOM      6  C   UNL     1       6.916   0.660  24.814  0.00  0.00    +0.000 A 
ATOM      7  C   UNL     1       8.307   0.909  24.650  0.00  0.00    +0.000 A 
ATOM      8  C   UNL     1       8.884   2.147  24.188  0.00  0.00    +0.000 A 
ATOM      9  C   UNL     1      10.266   2.359  23.872  0.00  0.00    +0.000 A 
ATOM     10  C   UNL     1      10.747   3.646  23.610  0.00  0.00    +0.000 A 
ATOM     11  C   UNL     1       9.879   4.730  23.570  0.00  0.00    +0.000 A 
ENDROOT
BRANCH   6  12
ATOM     12  C   UNL     1       6.378  -0.706  25.181  0.00  0.00    +0.000 A 
ATOM     13  C   UNL     1       6.163  -1.698  24.187  0.00  0.00    +0.000 A 
ATOM     14  C   UNL     1       5.887  -3.083  24.444  0.00  0.00    +0.000 A 
ATOM     15  C   UNL     1       5.895  -4.111  23.453  0.00  0.00    +0.000 A 
ATOM     16  C   UNL     1       5.440  -5.398  23.770  0.00  0.00    +0.000 A 
ATOM     17  C   UNL     1       5.053  -5.713  25.060  0.00  0.00    +0.000 A 
ATOM     18  C   UNL     1       5.167  -4.797  26.108  0.00  0.00    +0.000 A 
ATOM     19  C   UNL     1       5.563  -3.448  25.782  0.00  0.00    +0.000 A 
ATOM     20  C   UNL     1       5.626  -2.421  26.752  0.00  0.00    +0.000 A 
ATOM     21  C   UNL     1       6.064  -1.099  26.502  0.00  0.00    +0.000 A 
ATOM     22  C   UNL     1       6.062  -0.183  27.703  0.00  0.00    +0.000 C 
BRANCH  18  23
ATOM     23  C   UNL     1       4.840  -5.216  27.551  0.00  0.00    +0.000 C 
ATOM     24  C   UNL     1       3.339  -5.468  27.706  0.00  0.00    +0.000 C 
ATOM     25  C   UNL     1       5.640  -6.399  28.126  0.00  0.00    +0.000 C 
ENDBRANCH  18  23
BRANCH  15  26
ATOM     26  C   UNL     1       6.468  -3.916  22.096  0.00  0.00    +0.000 C 
ATOM     27  O   UNL     1       5.738  -3.806  21.110  0.00  0.00    +0.000 OA
ENDBRANCH  15  26
BRANCH  16  28
ATOM     28  O   UNL     1       5.367  -6.433  22.862  0.00  0.00    +0.000 OA
ATOM     29  H   UNL     1       5.309  -6.042  21.956  0.00  0.00    +0.000 HD
ENDBRANCH  16  28
BRANCH  17  30
ATOM     30  O   UNL     1       4.546  -6.970  25.258  0.00  0.00    +0.000 OA
ATOM     31  H   UNL     1       4.793  -7.470  24.452  0.00  0.00    +0.000 HD
ENDBRANCH  17  30
BRANCH  13  32
ATOM     32  O   UNL     1       6.068  -1.300  22.866  0.00  0.00    +0.000 OA
ATOM     33  H   UNL     1       5.640  -1.996  22.338  0.00  0.00    +0.000 HD
ENDBRANCH  13  32
ENDBRANCH   6  12
BRANCH   1  35
ATOM     34  C   UNL     1       7.829   6.855  24.565  0.00  0.00    +0.000 C 
ATOM     35  C   UNL     1       7.550   5.766  23.526  0.00  0.00    +0.000 C 
ATOM     36  C   UNL     1       7.500   6.383  22.119  0.00  0.00    +0.000 C 
ENDBRANCH   1  35
BRANCH  10  37
ATOM     37  O   UNL     1      12.068   3.949  23.360  0.00  0.00    +0.000 OA
ATOM     38  H   UNL     1      12.313   3.533  22.499  0.00  0.00    +0.000 HD
ENDBRANCH  10  37
BRANCH  11  39
ATOM     39  O   UNL     1      10.439   5.962  23.376  0.00  0.00    +0.000 OA
ATOM     40  H   UNL     1      11.210   5.988  23.983  0.00  0.00    +0.000 HD
ENDBRANCH  11  39
BRANCH   7  41
ATOM     41  O   UNL     1       9.206  -0.042  25.088  0.00  0.00    +0.000 OA
ATOM     42  H   UNL     1      10.099   0.181  24.774  0.00  0.00    +0.000 HD
ENDBRANCH   7  41
BRANCH   9  43
ATOM     43  C   UNL     1      11.236   1.243  23.722  0.00  0.00    +0.000 C 
ATOM     44  O   UNL     1      11.769   0.733  24.708  0.00  0.00    +0.000 OA
ENDBRANCH   9  43
TORSDOF 11
ENDMDL
MODEL 6
REMARK VINA RESULT:      -7.1      1.601      2.967
REMARK  Name = 
REMARK  17 active torsions:
REMARK  status: ('A' for Active; 'I' for Inactive)
REMARK    1  A    between atoms: C_1  and  C_2
REMARK    2  A    between atoms: C_2  and  C_3
REMARK    3  A    between atoms: C_2  and  C_4
REMARK    4  A    between atoms: C_7  and  C_8
REMARK    5  A    between atoms: C_9  and  C_20
REMARK    6  A    between atoms: C_10  and  O_11
REMARK    7  A    between atoms: C_13  and  C_14
REMARK    8  A    between atoms: C_16  and  O_17
REMARK    9  A    between atoms: C_18  and  O_19
REMARK   10  A    between atoms: C_21  and  O_22
REMARK   11  A    between atoms: C_24  and  C_25
REMARK   12  A    between atoms: C_27  and  O_28
REMARK   13  A    between atoms: C_29  and  O_30
REMARK   14  A    between atoms: C_31  and  C_32
REMARK   15  A    between atoms: C_32  and  C_33
REMARK   16  A    between atoms: C_32  and  C_34
REMARK   17  A    between atoms: C_37  and  C_38
REMARK                            x       y       z     vdW  Elec       q    Type
REMARK                         _______ _______ _______ _____ _____    ______ ____
ROOT
ATOM      1  C   UNL     1       9.025   4.318  23.764  0.00  0.00    +0.000 A 
ATOM      2  C   UNL     1       8.393   3.067  24.094  0.00  0.00    +0.000 A 
ATOM      3  C   UNL     1       9.140   1.971  24.574  0.00  0.00    +0.000 A 
ATOM      4  C   UNL     1       8.589   0.729  24.960  0.00  0.00    +0.000 A 
ATOM      5  C   UNL     1       9.591  -0.280  25.483  0.00  0.00    +0.000 C 
ATOM      6  C   UNL     1       7.208   0.485  24.771  0.00  0.00    +0.000 A 
ATOM      7  C   UNL     1       6.476   1.553  24.184  0.00  0.00    +0.000 A 
ATOM      8  C   UNL     1       6.991   2.876  23.926  0.00  0.00    +0.000 A 
ATOM      9  C   UNL     1       6.222   4.001  23.481  0.00  0.00    +0.000 A 
ATOM     10  C   UNL     1       6.854   5.184  23.087  0.00  0.00    +0.000 A 
ATOM     11  C   UNL     1       8.232   5.319  23.197  0.00  0.00    +0.000 A 
ENDROOT
BRANCH   6  12
ATOM     12  C   UNL     1       6.562  -0.836  25.129  0.00  0.00    +0.000 A 
ATOM     13  C   UNL     1       6.311  -1.819  24.135  0.00  0.00    +0.000 A 
ATOM     14  C   UNL     1       5.928  -3.178  24.391  0.00  0.00    +0.000 A 
ATOM     15  C   UNL     1       5.896  -4.214  23.408  0.00  0.00    +0.000 A 
ATOM     16  C   UNL     1       5.340  -5.462  23.718  0.00  0.00    +0.000 A 
ATOM     17  C   UNL     1       4.887  -5.737  24.996  0.00  0.00    +0.000 A 
ATOM     18  C   UNL     1       5.030  -4.821  26.041  0.00  0.00    +0.000 A 
ATOM     19  C   UNL     1       5.532  -3.507  25.719  0.00  0.00    +0.000 A 
ATOM     20  C   UNL     1       5.636  -2.478  26.684  0.00  0.00    +0.000 A 
ATOM     21  C   UNL     1       6.175  -1.193  26.440  0.00  0.00    +0.000 A 
ATOM     22  C   UNL     1       6.198  -0.268  27.635  0.00  0.00    +0.000 C 
BRANCH  18  23
ATOM     23  C   UNL     1       4.625  -5.203  27.475  0.00  0.00    +0.000 C 
ATOM     24  C   UNL     1       3.103  -5.167  27.625  0.00  0.00    +0.000 C 
ATOM     25  C   UNL     1       5.183  -6.528  28.022  0.00  0.00    +0.000 C 
ENDBRANCH  18  23
BRANCH  15  26
ATOM     26  C   UNL     1       6.529  -4.072  22.071  0.00  0.00    +0.000 C 
ATOM     27  O   UNL     1       5.841  -3.968  21.054  0.00  0.00    +0.000 OA
ENDBRANCH  15  26
BRANCH  16  28
ATOM     28  O   UNL     1       5.224  -6.497  22.815  0.00  0.00    +0.000 OA
ATOM     29  H   UNL     1       4.548  -7.130  23.158  0.00  0.00    +0.000 HD
ENDBRANCH  16  28
BRANCH  17  30
ATOM     30  O   UNL     1       4.285  -6.951  25.185  0.00  0.00    +0.000 OA
ATOM     31  H   UNL     1       3.583  -6.784  25.848  0.00  0.00    +0.000 HD
ENDBRANCH  17  30
BRANCH  13  32
ATOM     32  O   UNL     1       6.290  -1.427  22.808  0.00  0.00    +0.000 OA
ATOM     33  H   UNL     1       5.707  -2.015  22.296  0.00  0.00    +0.000 HD
ENDBRANCH  13  32
ENDBRANCH   6  12
BRANCH   1  35
ATOM     34  C   UNL     1      11.360   3.946  22.877  0.00  0.00    +0.000 C 
ATOM     35  C   UNL     1      10.525   4.553  24.007  0.00  0.00    +0.000 C 
ATOM     36  C   UNL     1      10.960   6.006  24.260  0.00  0.00    +0.000 C 
ENDBRANCH   1  35
BRANCH  10  37
ATOM     37  O   UNL     1       6.200   6.289  22.587  0.00  0.00    +0.000 OA
ATOM     38  H   UNL     1       5.634   6.654  23.308  0.00  0.00    +0.000 HD
ENDBRANCH  10  37
BRANCH  11  39
ATOM     39  O   UNL     1       8.779   6.481  22.725  0.00  0.00    +0.000 OA
ATOM     40  H   UNL     1       8.797   7.084  23.499  0.00  0.00    +0.000 HD
ENDBRANCH  11  39
BRANCH   7  41
ATOM     41  O   UNL     1       5.214   1.297  23.687  0.00  0.00    +0.000 OA
ATOM     42  H   UNL     1       4.633   0.995  24.406  0.00  0.00    +0.000 HD
ENDBRANCH   7  41
BRANCH   9  43
ATOM     43  C   UNL     1       4.735   4.012  23.490  0.00  0.00    +0.000 C 
ATOM     44  O   UNL     1       4.097   3.892  22.444  0.00  0.00    +0.000 OA
ENDBRANCH   9  43
TORSDOF 11
ENDMDL
MODEL 7
REMARK VINA RESULT:      -6.5      1.028      1.195
REMARK  Name = 
REMARK  17 active torsions:
REMARK  status: ('A' for Active; 'I' for Inactive)
REMARK    1  A    between atoms: C_1  and  C_2
REMARK    2  A    between atoms: C_2  and  C_3
REMARK    3  A    between atoms: C_2  and  C_4
REMARK    4  A    between atoms: C_7  and  C_8
REMARK    5  A    between atoms: C_9  and  C_20
REMARK    6  A    between atoms: C_10  and  O_11
REMARK    7  A    between atoms: C_13  and  C_14
REMARK    8  A    between atoms: C_16  and  O_17
REMARK    9  A    between atoms: C_18  and  O_19
REMARK   10  A    between atoms: C_21  and  O_22
REMARK   11  A    between atoms: C_24  and  C_25
REMARK   12  A    between atoms: C_27  and  O_28
REMARK   13  A    between atoms: C_29  and  O_30
REMARK   14  A    between atoms: C_31  and  C_32
REMARK   15  A    between atoms: C_32  and  C_33
REMARK   16  A    between atoms: C_32  and  C_34
REMARK   17  A    between atoms: C_37  and  C_38
REMARK                            x       y       z     vdW  Elec       q    Type
REMARK                         _______ _______ _______ _____ _____    ______ ____
ROOT
ATOM      1  C   UNL     1       8.879   5.012  23.301  0.00  0.00    +0.000 A 
ATOM      2  C   UNL     1       8.573   3.619  23.496  0.00  0.00    +0.000 A 
ATOM      3  C   UNL     1       9.530   2.721  24.013  0.00  0.00    +0.000 A 
ATOM      4  C   UNL     1       9.292   1.353  24.274  0.00  0.00    +0.000 A 
ATOM      5  C   UNL     1      10.466   0.602  24.868  0.00  0.00    +0.000 C 
ATOM      6  C   UNL     1       8.054   0.774  23.909  0.00  0.00    +0.000 A 
ATOM      7  C   UNL     1       7.129   1.657  23.286  0.00  0.00    +0.000 A 
ATOM      8  C   UNL     1       7.298   3.083  23.152  0.00  0.00    +0.000 A 
ATOM      9  C   UNL     1       6.308   4.000  22.667  0.00  0.00    +0.000 A 
ATOM     10  C   UNL     1       6.640   5.333  22.406  0.00  0.00    +0.000 A 
ATOM     11  C   UNL     1       7.913   5.812  22.688  0.00  0.00    +0.000 A 
ENDROOT
BRANCH   6  12
ATOM     12  C   UNL     1       7.749  -0.692  24.126  0.00  0.00    +0.000 A 
ATOM     13  C   UNL     1       7.172  -1.146  25.342  0.00  0.00    +0.000 A 
ATOM     14  C   UNL     1       6.630  -2.456  25.564  0.00  0.00    +0.000 A 
ATOM     15  C   UNL     1       5.854  -2.834  26.701  0.00  0.00    +0.000 A 
ATOM     16  C   UNL     1       5.521  -4.179  26.912  0.00  0.00    +0.000 A 
ATOM     17  C   UNL     1       5.868  -5.146  25.987  0.00  0.00    +0.000 A 
ATOM     18  C   UNL     1       6.492  -4.821  24.780  0.00  0.00    +0.000 A 
ATOM     19  C   UNL     1       6.906  -3.453  24.584  0.00  0.00    +0.000 A 
ATOM     20  C   UNL     1       7.620  -3.034  23.438  0.00  0.00    +0.000 A 
ATOM     21  C   UNL     1       7.999  -1.698  23.166  0.00  0.00    +0.000 A 
ATOM     22  C   UNL     1       8.741  -1.492  21.865  0.00  0.00    +0.000 C 
BRANCH  18  23
ATOM     23  C   UNL     1       6.757  -5.905  23.721  0.00  0.00    +0.000 C 
ATOM     24  C   UNL     1       5.610  -5.954  22.710  0.00  0.00    +0.000 C 
ATOM     25  C   UNL     1       8.109  -5.842  22.989  0.00  0.00    +0.000 C 
ENDBRANCH  18  23
BRANCH  15  26
ATOM     26  C   UNL     1       5.278  -1.842  27.646  0.00  0.00    +0.000 C 
ATOM     27  O   UNL     1       4.083  -1.873  27.946  0.00  0.00    +0.000 OA
ENDBRANCH  15  26
BRANCH  16  28
ATOM     28  O   UNL     1       4.821  -4.634  28.009  0.00  0.00    +0.000 OA
ATOM     29  H   UNL     1       5.403  -4.548  28.802  0.00  0.00    +0.000 HD
ENDBRANCH  16  28
BRANCH  17  30
ATOM     30  O   UNL     1       5.574  -6.442  26.316  0.00  0.00    +0.000 OA
ATOM     31  H   UNL     1       6.031  -6.594  27.170  0.00  0.00    +0.000 HD
ENDBRANCH  17  30
BRANCH  13  32
ATOM     32  O   UNL     1       7.251  -0.330  26.457  0.00  0.00    +0.000 OA
ATOM     33  H   UNL     1       6.358  -0.134  26.789  0.00  0.00    +0.000 HD
ENDBRANCH  13  32
ENDBRANCH   6  12
BRANCH   1  35
ATOM     34  C   UNL     1      10.175   6.077  25.190  0.00  0.00    +0.000 C 
ATOM     35  C   UNL     1      10.229   5.609  23.734  0.00  0.00    +0.000 C 
ATOM     36  C   UNL     1      11.472   4.732  23.510  0.00  0.00    +0.000 C 
ENDBRANCH   1  35
BRANCH  10  37
ATOM     37  O   UNL     1       5.771   6.265  21.880  0.00  0.00    +0.000 OA
ATOM     38  H   UNL     1       5.776   7.050  22.479  0.00  0.00    +0.000 HD
ENDBRANCH  10  37
BRANCH  11  39
ATOM     39  O   UNL     1       8.177   7.108  22.338  0.00  0.00    +0.000 OA
ATOM     40  H   UNL     1       8.159   7.606  23.182  0.00  0.00    +0.000 HD
ENDBRANCH  11  39
BRANCH   7  41
ATOM     41  O   UNL     1       6.041   1.120  22.629  0.00  0.00    +0.000 OA
ATOM     42  H   UNL     1       5.675   1.775  22.010  0.00  0.00    +0.000 HD
ENDBRANCH   7  41
BRANCH   9  43
ATOM     43  C   UNL     1       4.880   3.625  22.497  0.00  0.00    +0.000 C 
ATOM     44  O   UNL     1       4.195   3.294  23.465  0.00  0.00    +0.000 OA
ENDBRANCH   9  43
TORSDOF 11
ENDMDL
MODEL 8
REMARK VINA RESULT:      -6.2      1.929      3.416
REMARK  Name = 
REMARK  17 active torsions:
REMARK  status: ('A' for Active; 'I' for Inactive)
REMARK    1  A    between atoms: C_1  and  C_2
REMARK    2  A    between atoms: C_2  and  C_3
REMARK    3  A    between atoms: C_2  and  C_4
REMARK    4  A    between atoms: C_7  and  C_8
REMARK    5  A    between atoms: C_9  and  C_20
REMARK    6  A    between atoms: C_10  and  O_11
REMARK    7  A    between atoms: C_13  and  C_14
REMARK    8  A    between atoms: C_16  and  O_17
REMARK    9  A    between atoms: C_18  and  O_19
REMARK   10  A    between atoms: C_21  and  O_22
REMARK   11  A    between atoms: C_24  and  C_25
REMARK   12  A    between atoms: C_27  and  O_28
REMARK   13  A    between atoms: C_29  and  O_30
REMARK   14  A    between atoms: C_31  and  C_32
REMARK   15  A    between atoms: C_32  and  C_33
REMARK   16  A    between atoms: C_32  and  C_34
REMARK   17  A    between atoms: C_37  and  C_38
REMARK                            x       y       z     vdW  Elec       q    Type
REMARK                         _______ _______ _______ _____ _____    ______ ____
ROOT
ATOM      1  C   UNL     1       8.983   3.385  23.653  0.00  0.00    +0.000 A 
ATOM      2  C   UNL     1       8.281   2.211  24.103  0.00  0.00    +0.000 A 
ATOM      3  C   UNL     1       8.955   0.992  24.322  0.00  0.00    +0.000 A 
ATOM      4  C   UNL     1       8.347  -0.189  24.803  0.00  0.00    +0.000 A 
ATOM      5  C   UNL     1       9.288  -1.360  24.996  0.00  0.00    +0.000 C 
ATOM      6  C   UNL     1       6.946  -0.228  24.994  0.00  0.00    +0.000 A 
ATOM      7  C   UNL     1       6.253   0.970  24.667  0.00  0.00    +0.000 A 
ATOM      8  C   UNL     1       6.873   2.225  24.322  0.00  0.00    +0.000 A 
ATOM      9  C   UNL     1       6.192   3.473  24.142  0.00  0.00    +0.000 A 
ATOM     10  C   UNL     1       6.866   4.585  23.629  0.00  0.00    +0.000 A 
ATOM     11  C   UNL     1       8.227   4.524  23.360  0.00  0.00    +0.000 A 
ENDROOT
BRANCH   6  12
ATOM     12  C   UNL     1       6.228  -1.472  25.472  0.00  0.00    +0.000 A 
ATOM     13  C   UNL     1       5.958  -2.547  24.583  0.00  0.00    +0.000 A 
ATOM     14  C   UNL     1       5.504  -3.851  24.974  0.00  0.00    +0.000 A 
ATOM     15  C   UNL     1       5.452  -4.987  24.110  0.00  0.00    +0.000 A 
ATOM     16  C   UNL     1       4.828  -6.167  24.535  0.00  0.00    +0.000 A 
ATOM     17  C   UNL     1       4.326  -6.278  25.819  0.00  0.00    +0.000 A 
ATOM     18  C   UNL     1       4.482  -5.259  26.762  0.00  0.00    +0.000 A 
ATOM     19  C   UNL     1       5.055  -4.013  26.316  0.00  0.00    +0.000 A 
ATOM     20  C   UNL     1       5.179  -2.889  27.165  0.00  0.00    +0.000 A 
ATOM     21  C   UNL     1       5.786  -1.664  26.801  0.00  0.00    +0.000 A 
ATOM     22  C   UNL     1       5.818  -0.613  27.887  0.00  0.00    +0.000 C 
BRANCH  18  23
ATOM     23  C   UNL     1       4.017  -5.462  28.214  0.00  0.00    +0.000 C 
ATOM     24  C   UNL     1       2.489  -5.442  28.292  0.00  0.00    +0.000 C 
ATOM     25  C   UNL     1       4.572  -6.692  28.953  0.00  0.00    +0.000 C 
ENDBRANCH  18  23
BRANCH  15  26
ATOM     26  C   UNL     1       6.129  -5.022  22.787  0.00  0.00    +0.000 C 
ATOM     27  O   UNL     1       5.478  -4.989  21.742  0.00  0.00    +0.000 OA
ENDBRANCH  15  26
BRANCH  16  28
ATOM     28  O   UNL     1       4.689  -7.290  23.747  0.00  0.00    +0.000 OA
ATOM     29  H   UNL     1       5.593  -7.611  23.509  0.00  0.00    +0.000 HD
ENDBRANCH  16  28
BRANCH  17  30
ATOM     30  O   UNL     1       3.661  -7.437  26.119  0.00  0.00    +0.000 OA
ATOM     31  H   UNL     1       4.225  -8.152  25.754  0.00  0.00    +0.000 HD
ENDBRANCH  17  30
BRANCH  13  32
ATOM     32  O   UNL     1       5.995  -2.304  23.222  0.00  0.00    +0.000 OA
ATOM     33  H   UNL     1       5.090  -2.263  22.866  0.00  0.00    +0.000 HD
ENDBRANCH  13  32
ENDBRANCH   6  12
BRANCH   1  35
ATOM     34  C   UNL     1      10.909   2.812  22.124  0.00  0.00    +0.000 C 
ATOM     35  C   UNL     1      10.511   3.396  23.481  0.00  0.00    +0.000 C 
ATOM     36  C   UNL     1      11.217   4.744  23.701  0.00  0.00    +0.000 C 
ENDBRANCH   1  35
BRANCH  10  37
ATOM     37  O   UNL     1       6.276   5.803  23.366  0.00  0.00    +0.000 OA
ATOM     38  H   UNL     1       6.747   6.204  22.596  0.00  0.00    +0.000 HD
ENDBRANCH  10  37
BRANCH  11  39
ATOM     39  O   UNL     1       8.796   5.632  22.795  0.00  0.00    +0.000 OA
ATOM     40  H   UNL     1       9.355   5.285  22.067  0.00  0.00    +0.000 HD
ENDBRANCH  11  39
BRANCH   7  41
ATOM     41  O   UNL     1       4.880   0.925  24.529  0.00  0.00    +0.000 OA
ATOM     42  H   UNL     1       4.587   0.000  24.459  0.00  0.00    +0.000 HD
ENDBRANCH   7  41
BRANCH   9  43
ATOM     43  C   UNL     1       4.781   3.686  24.561  0.00  0.00    +0.000 C 
ATOM     44  O   UNL     1       4.490   4.563  25.375  0.00  0.00    +0.000 OA
ENDBRANCH   9  43
TORSDOF 11
ENDMDL
MODEL 9
REMARK VINA RESULT:      -6.2      2.411      4.488
REMARK  Name = 
REMARK  17 active torsions:
REMARK  status: ('A' for Active; 'I' for Inactive)
REMARK    1  A    between atoms: C_1  and  C_2
REMARK    2  A    between atoms: C_2  and  C_3
REMARK    3  A    between atoms: C_2  and  C_4
REMARK    4  A    between atoms: C_7  and  C_8
REMARK    5  A    between atoms: C_9  and  C_20
REMARK    6  A    between atoms: C_10  and  O_11
REMARK    7  A    between atoms: C_13  and  C_14
REMARK    8  A    between atoms: C_16  and  O_17
REMARK    9  A    between atoms: C_18  and  O_19
REMARK   10  A    between atoms: C_21  and  O_22
REMARK   11  A    between atoms: C_24  and  C_25
REMARK   12  A    between atoms: C_27  and  O_28
REMARK   13  A    between atoms: C_29  and  O_30
REMARK   14  A    between atoms: C_31  and  C_32
REMARK   15  A    between atoms: C_32  and  C_33
REMARK   16  A    between atoms: C_32  and  C_34
REMARK   17  A    between atoms: C_37  and  C_38
REMARK                            x       y       z     vdW  Elec       q    Type
REMARK                         _______ _______ _______ _____ _____    ______ ____
ROOT
ATOM      1  C   UNL     1       8.150   4.686  23.724  0.00  0.00    +0.000 A 
ATOM      2  C   UNL     1       7.622   3.480  24.306  0.00  0.00    +0.000 A 
ATOM      3  C   UNL     1       6.258   3.364  24.644  0.00  0.00    +0.000 A 
ATOM      4  C   UNL     1       5.656   2.202  25.177  0.00  0.00    +0.000 A 
ATOM      5  C   UNL     1       4.165   2.308  25.420  0.00  0.00    +0.000 C 
ATOM      6  C   UNL     1       6.459   1.085  25.508  0.00  0.00    +0.000 A 
ATOM      7  C   UNL     1       7.852   1.245  25.269  0.00  0.00    +0.000 A 
ATOM      8  C   UNL     1       8.460   2.362  24.588  0.00  0.00    +0.000 A 
ATOM      9  C   UNL     1       9.838   2.460  24.206  0.00  0.00    +0.000 A 
ATOM     10  C   UNL     1      10.357   3.662  23.717  0.00  0.00    +0.000 A 
ATOM     11  C   UNL     1       9.530   4.759  23.515  0.00  0.00    +0.000 A 
ENDROOT
BRANCH   6  12
ATOM     12  C   UNL     1       5.884  -0.175  26.116  0.00  0.00    +0.000 A 
ATOM     13  C   UNL     1       5.631  -1.322  25.317  0.00  0.00    +0.000 A 
ATOM     14  C   UNL     1       5.315  -2.629  25.818  0.00  0.00    +0.000 A 
ATOM     15  C   UNL     1       5.285  -3.818  25.029  0.00  0.00    +0.000 A 
ATOM     16  C   UNL     1       4.793  -5.012  25.572  0.00  0.00    +0.000 A 
ATOM     17  C   UNL     1       4.407  -5.079  26.899  0.00  0.00    +0.000 A 
ATOM     18  C   UNL     1       4.556  -3.993  27.765  0.00  0.00    +0.000 A 
ATOM     19  C   UNL     1       4.990  -2.738  27.201  0.00  0.00    +0.000 A 
ATOM     20  C   UNL     1       5.092  -1.556  27.971  0.00  0.00    +0.000 A 
ATOM     21  C   UNL     1       5.567  -0.315  27.486  0.00  0.00    +0.000 A 
ATOM     22  C   UNL     1       5.603   0.802  28.504  0.00  0.00    +0.000 C 
BRANCH  18  23
ATOM     23  C   UNL     1       4.228  -4.137  29.261  0.00  0.00    +0.000 C 
ATOM     24  C   UNL     1       2.737  -4.416  29.454  0.00  0.00    +0.000 C 
ATOM     25  C   UNL     1       5.067  -5.150  30.059  0.00  0.00    +0.000 C 
ENDBRANCH  18  23
BRANCH  15  26
ATOM     26  C   UNL     1       5.853  -3.887  23.657  0.00  0.00    +0.000 C 
ATOM     27  O   UNL     1       7.072  -3.926  23.479  0.00  0.00    +0.000 OA
ENDBRANCH  15  26
BRANCH  16  28
ATOM     28  O   UNL     1       4.682  -6.190  24.865  0.00  0.00    +0.000 OA
ATOM     29  H   UNL     1       3.958  -6.083  24.202  0.00  0.00    +0.000 HD
ENDBRANCH  16  28
BRANCH  17  30
ATOM     30  O   UNL     1       3.864  -6.263  27.320  0.00  0.00    +0.000 OA
ATOM     31  H   UNL     1       3.081  -6.005  27.852  0.00  0.00    +0.000 HD
ENDBRANCH  17  30
BRANCH  13  32
ATOM     32  O   UNL     1       5.538  -1.164  23.945  0.00  0.00    +0.000 OA
ATOM     33  H   UNL     1       6.357  -0.768  23.599  0.00  0.00    +0.000 HD
ENDBRANCH  13  32
ENDBRANCH   6  12
BRANCH   1  35
ATOM     34  C   UNL     1       7.389   7.007  24.368  0.00  0.00    +0.000 C 
ATOM     35  C   UNL     1       7.241   5.870  23.355  0.00  0.00    +0.000 C 
ATOM     36  C   UNL     1       7.375   6.419  21.925  0.00  0.00    +0.000 C 
ENDBRANCH   1  35
BRANCH  10  37
ATOM     37  O   UNL     1      11.680   3.863  23.386  0.00  0.00    +0.000 OA
ATOM     38  H   UNL     1      11.889   3.279  22.618  0.00  0.00    +0.000 HD
ENDBRANCH  10  37
BRANCH  11  39
ATOM     39  O   UNL     1      10.129   5.917  23.101  0.00  0.00    +0.000 OA
ATOM     40  H   UNL     1       9.732   6.620  23.658  0.00  0.00    +0.000 HD
ENDBRANCH  11  39
BRANCH   7  41
ATOM     41  O   UNL     1       8.730   0.345  25.840  0.00  0.00    +0.000 OA
ATOM     42  H   UNL     1       8.237  -0.410  26.202  0.00  0.00    +0.000 HD
ENDBRANCH   7  41
BRANCH   9  43
ATOM     43  C   UNL     1      10.761   1.294  24.224  0.00  0.00    +0.000 C 
ATOM     44  O   UNL     1      10.662   0.399  23.384  0.00  0.00    +0.000 OA
ENDBRANCH   9  43
TORSDOF 11
ENDMDL
