MODEL 1
REMARK VINA RESULT:      -3.9      0.000      0.000
REMARK  Name = 
REMARK  5 active torsions:
REMARK  status: ('A' for Active; 'I' for Inactive)
REMARK    1  A    between atoms: C_2  and  C_3
REMARK    2  A    between atoms: C_3  and  S_4
REMARK    3  A    between atoms: S_4  and  S_5
REMARK    4  A    between atoms: S_5  and  C_7
REMARK    5  A    between atoms: C_7  and  C_8
REMARK                            x       y       z     vdW  Elec       q    Type
REMARK                         _______ _______ _______ _____ _____    ______ ____
ROOT
ATOM      1  S   UNL     1       9.166  -2.620  23.976  0.00  0.00    +0.000 S 
ATOM      2  O   UNL     1       9.828  -3.921  24.332  0.00  0.00    +0.000 OA
ENDROOT
BRANCH   1   3
ATOM      3  S   UNL     1       7.725  -3.315  22.723  0.00  0.00    +0.000 S 
BRANCH   3   4
ATOM      4  C   UNL     1       7.567  -5.038  23.275  0.00  0.00    +0.000 C 
BRANCH   4   6
ATOM      5  C   UNL     1       6.364  -5.635  21.147  0.00  0.00    +0.000 C 
ATOM      6  C   UNL     1       7.265  -5.924  22.101  0.00  0.00    +0.000 C 
ENDBRANCH   4   6
ENDBRANCH   3   4
ENDBRANCH   1   3
BRANCH   1   7
ATOM      7  C   UNL     1      10.251  -1.711  22.819  0.00  0.00    +0.000 C 
BRANCH   7   8
ATOM      8  C   UNL     1       9.449  -1.023  21.751  0.00  0.00    +0.000 C 
ATOM      9  C   UNL     1       9.475   0.300  21.521  0.00  0.00    +0.000 C 
ENDBRANCH   7   8
ENDBRANCH   1   7
TORSDOF 5
ENDMDL
MODEL 2
REMARK VINA RESULT:      -3.6      1.913      2.041
REMARK  Name = 
REMARK  5 active torsions:
REMARK  status: ('A' for Active; 'I' for Inactive)
REMARK    1  A    between atoms: C_2  and  C_3
REMARK    2  A    between atoms: C_3  and  S_4
REMARK    3  A    between atoms: S_4  and  S_5
REMARK    4  A    between atoms: S_5  and  C_7
REMARK    5  A    between atoms: C_7  and  C_8
REMARK                            x       y       z     vdW  Elec       q    Type
REMARK                         _______ _______ _______ _____ _____    ______ ____
ROOT
ATOM      1  S   UNL     1       9.835  -2.227  23.712  0.00  0.00    +0.000 S 
ATOM      2  O   UNL     1      10.566  -1.921  22.435  0.00  0.00    +0.000 OA
ENDROOT
BRANCH   1   3
ATOM      3  S   UNL     1       8.061  -2.846  22.939  0.00  0.00    +0.000 S 
BRANCH   3   4
ATOM      4  C   UNL     1       7.937  -4.525  23.620  0.00  0.00    +0.000 C 
BRANCH   4   6
ATOM      5  C   UNL     1       7.080  -5.847  21.657  0.00  0.00    +0.000 C 
ATOM      6  C   UNL     1       6.893  -5.303  22.871  0.00  0.00    +0.000 C 
ENDBRANCH   4   6
ENDBRANCH   3   4
ENDBRANCH   1   3
BRANCH   1   7
ATOM      7  C   UNL     1       9.359  -0.649  24.504  0.00  0.00    +0.000 C 
BRANCH   7   8
ATOM      8  C   UNL     1      10.550   0.251  24.678  0.00  0.00    +0.000 C 
ATOM      9  C   UNL     1      10.651   1.481  24.150  0.00  0.00    +0.000 C 
ENDBRANCH   7   8
ENDBRANCH   1   7
TORSDOF 5
ENDMDL
MODEL 3
REMARK VINA RESULT:      -3.5      1.071      4.828
REMARK  Name = 
REMARK  5 active torsions:
REMARK  status: ('A' for Active; 'I' for Inactive)
REMARK    1  A    between atoms: C_2  and  C_3
REMARK    2  A    between atoms: C_3  and  S_4
REMARK    3  A    between atoms: S_4  and  S_5
REMARK    4  A    between atoms: S_5  and  C_7
REMARK    5  A    between atoms: C_7  and  C_8
REMARK                            x       y       z     vdW  Elec       q    Type
REMARK                         _______ _______ _______ _____ _____    ______ ____
ROOT
ATOM      1  S   UNL     1       9.103  -3.225  24.167  0.00  0.00    +0.000 S 
ATOM      2  O   UNL     1       8.518  -2.366  25.252  0.00  0.00    +0.000 OA
ENDROOT
BRANCH   1   3
ATOM      3  S   UNL     1       8.446  -2.197  22.542  0.00  0.00    +0.000 S 
BRANCH   3   4
ATOM      4  C   UNL     1       9.912  -1.210  22.123  0.00  0.00    +0.000 C 
BRANCH   4   6
ATOM      5  C   UNL     1       9.881   1.299  21.935  0.00  0.00    +0.000 C 
ATOM      6  C   UNL     1       9.490   0.090  21.500  0.00  0.00    +0.000 C 
ENDBRANCH   4   6
ENDBRANCH   3   4
ENDBRANCH   1   3
BRANCH   1   7
ATOM      7  C   UNL     1       8.122  -4.763  24.049  0.00  0.00    +0.000 C 
BRANCH   7   8
ATOM      8  C   UNL     1       7.319  -4.798  22.780  0.00  0.00    +0.000 C 
ATOM      9  C   UNL     1       7.220  -5.869  21.976  0.00  0.00    +0.000 C 
ENDBRANCH   7   8
ENDBRANCH   1   7
TORSDOF 5
ENDMDL
MODEL 4
REMARK VINA RESULT:      -3.5      2.170      5.153
REMARK  Name = 
REMARK  5 active torsions:
REMARK  status: ('A' for Active; 'I' for Inactive)
REMARK    1  A    between atoms: C_2  and  C_3
REMARK    2  A    between atoms: C_3  and  S_4
REMARK    3  A    between atoms: S_4  and  S_5
REMARK    4  A    between atoms: S_5  and  C_7
REMARK    5  A    between atoms: C_7  and  C_8
REMARK                            x       y       z     vdW  Elec       q    Type
REMARK                         _______ _______ _______ _____ _____    ______ ____
ROOT
ATOM      1  S   UNL     1      10.090  -1.839  23.137  0.00  0.00    +0.000 S 
ATOM      2  O   UNL     1      10.116  -3.105  23.946  0.00  0.00    +0.000 OA
ENDROOT
BRANCH   1   3
ATOM      3  S   UNL     1       9.619  -0.517  24.606  0.00  0.00    +0.000 S 
BRANCH   3   4
ATOM      4  C   UNL     1      10.902   0.748  24.378  0.00  0.00    +0.000 C 
BRANCH   4   6
ATOM      5  C   UNL     1      10.068   1.818  22.258  0.00  0.00    +0.000 C 
ATOM      6  C   UNL     1      10.356   1.889  23.569  0.00  0.00    +0.000 C 
ENDBRANCH   4   6
ENDBRANCH   3   4
ENDBRANCH   1   3
BRANCH   1   7
ATOM      7  C   UNL     1       8.566  -1.823  22.128  0.00  0.00    +0.000 C 
BRANCH   7   8
ATOM      8  C   UNL     1       7.625  -2.916  22.549  0.00  0.00    +0.000 C 
ATOM      9  C   UNL     1       6.301  -2.901  22.326  0.00  0.00    +0.000 C 
ENDBRANCH   7   8
ENDBRANCH   1   7
TORSDOF 5
ENDMDL
MODEL 5
REMARK VINA RESULT:      -3.3      1.486      1.642
REMARK  Name = 
REMARK  5 active torsions:
REMARK  status: ('A' for Active; 'I' for Inactive)
REMARK    1  A    between atoms: C_2  and  C_3
REMARK    2  A    between atoms: C_3  and  S_4
REMARK    3  A    between atoms: S_4  and  S_5
REMARK    4  A    between atoms: S_5  and  C_7
REMARK    5  A    between atoms: C_7  and  C_8
REMARK                            x       y       z     vdW  Elec       q    Type
REMARK                         _______ _______ _______ _____ _____    ______ ____
ROOT
ATOM      1  S   UNL     1       8.064  -1.743  23.046  0.00  0.00    +0.000 S 
ATOM      2  O   UNL     1       8.000  -0.808  24.220  0.00  0.00    +0.000 OA
ENDROOT
BRANCH   1   3
ATOM      3  S   UNL     1       8.686  -3.427  23.997  0.00  0.00    +0.000 S 
BRANCH   3   4
ATOM      4  C   UNL     1       7.290  -4.549  23.693  0.00  0.00    +0.000 C 
BRANCH   4   6
ATOM      5  C   UNL     1       6.754  -6.093  21.780  0.00  0.00    +0.000 C 
ATOM      6  C   UNL     1       7.251  -4.934  22.242  0.00  0.00    +0.000 C 
ENDBRANCH   4   6
ENDBRANCH   3   4
ENDBRANCH   1   3
BRANCH   1   7
ATOM      7  C   UNL     1       9.536  -1.323  22.046  0.00  0.00    +0.000 C 
BRANCH   7   8
ATOM      8  C   UNL     1       9.391   0.030  21.409  0.00  0.00    +0.000 C 
ATOM      9  C   UNL     1       9.901   1.164  21.917  0.00  0.00    +0.000 C 
ENDBRANCH   7   8
ENDBRANCH   1   7
TORSDOF 5
ENDMDL
MODEL 6
REMARK VINA RESULT:      -3.3      2.761      5.332
REMARK  Name = 
REMARK  5 active torsions:
REMARK  status: ('A' for Active; 'I' for Inactive)
REMARK    1  A    between atoms: C_2  and  C_3
REMARK    2  A    between atoms: C_3  and  S_4
REMARK    3  A    between atoms: S_4  and  S_5
REMARK    4  A    between atoms: S_5  and  C_7
REMARK    5  A    between atoms: C_7  and  C_8
REMARK                            x       y       z     vdW  Elec       q    Type
REMARK                         _______ _______ _______ _____ _____    ______ ____
ROOT
ATOM      1  S   UNL     1       9.218  -1.351  21.894  0.00  0.00    +0.000 S 
ATOM      2  O   UNL     1      10.613  -1.784  22.242  0.00  0.00    +0.000 OA
ENDROOT
BRANCH   1   3
ATOM      3  S   UNL     1       9.496   0.661  21.854  0.00  0.00    +0.000 S 
BRANCH   3   4
ATOM      4  C   UNL     1       8.777   1.157  23.447  0.00  0.00    +0.000 C 
BRANCH   4   6
ATOM      5  C   UNL     1      10.975   0.748  24.601  0.00  0.00    +0.000 C 
ATOM      6  C   UNL     1       9.872   1.492  24.419  0.00  0.00    +0.000 C 
ENDBRANCH   4   6
ENDBRANCH   3   4
ENDBRANCH   1   3
BRANCH   1   7
ATOM      7  C   UNL     1       8.161  -1.545  23.373  0.00  0.00    +0.000 C 
BRANCH   7   8
ATOM      8  C   UNL     1       8.743  -2.549  24.328  0.00  0.00    +0.000 C 
ATOM      9  C   UNL     1       8.579  -3.877  24.220  0.00  0.00    +0.000 C 
ENDBRANCH   7   8
ENDBRANCH   1   7
TORSDOF 5
ENDMDL
MODEL 7
REMARK VINA RESULT:      -3.3      1.872      2.195
REMARK  Name = 
REMARK  5 active torsions:
REMARK  status: ('A' for Active; 'I' for Inactive)
REMARK    1  A    between atoms: C_2  and  C_3
REMARK    2  A    between atoms: C_3  and  S_4
REMARK    3  A    between atoms: S_4  and  S_5
REMARK    4  A    between atoms: S_5  and  C_7
REMARK    5  A    between atoms: C_7  and  C_8
REMARK                            x       y       z     vdW  Elec       q    Type
REMARK                         _______ _______ _______ _____ _____    ______ ____
ROOT
ATOM      1  S   UNL     1      10.029  -1.122  23.486  0.00  0.00    +0.000 S 
ATOM      2  O   UNL     1      10.350  -1.849  22.212  0.00  0.00    +0.000 OA
ENDROOT
BRANCH   1   3
ATOM      3  S   UNL     1       8.028  -1.462  23.567  0.00  0.00    +0.000 S 
BRANCH   3   4
ATOM      4  C   UNL     1       7.861  -2.895  22.463  0.00  0.00    +0.000 C 
BRANCH   4   6
ATOM      5  C   UNL     1       7.383  -5.346  22.772  0.00  0.00    +0.000 C 
ATOM      6  C   UNL     1       7.737  -4.153  23.276  0.00  0.00    +0.000 C 
ENDBRANCH   4   6
ENDBRANCH   3   4
ENDBRANCH   1   3
BRANCH   1   7
ATOM      7  C   UNL     1      10.083   0.676  23.162  0.00  0.00    +0.000 C 
BRANCH   7   8
ATOM      8  C   UNL     1       9.571   0.994  21.785  0.00  0.00    +0.000 C 
ATOM      9  C   UNL     1       8.482   1.741  21.538  0.00  0.00    +0.000 C 
ENDBRANCH   7   8
ENDBRANCH   1   7
TORSDOF 5
ENDMDL
MODEL 8
REMARK VINA RESULT:      -3.3      1.810      5.038
REMARK  Name = 
REMARK  5 active torsions:
REMARK  status: ('A' for Active; 'I' for Inactive)
REMARK    1  A    between atoms: C_2  and  C_3
REMARK    2  A    between atoms: C_3  and  S_4
REMARK    3  A    between atoms: S_4  and  S_5
REMARK    4  A    between atoms: S_5  and  C_7
REMARK    5  A    between atoms: C_7  and  C_8
REMARK                            x       y       z     vdW  Elec       q    Type
REMARK                         _______ _______ _______ _____ _____    ______ ____
ROOT
ATOM      1  S   UNL     1       7.794  -2.936  23.512  0.00  0.00    +0.000 S 
ATOM      2  O   UNL     1       7.702  -2.686  22.034  0.00  0.00    +0.000 OA
ENDROOT
BRANCH   1   3
ATOM      3  S   UNL     1       9.707  -2.333  23.832  0.00  0.00    +0.000 S 
BRANCH   3   4
ATOM      4  C   UNL     1      10.090  -1.502  22.263  0.00  0.00    +0.000 C 
BRANCH   4   6
ATOM      5  C   UNL     1       9.374   0.810  21.573  0.00  0.00    +0.000 C 
ATOM      6  C   UNL     1       9.991  -0.013  22.437  0.00  0.00    +0.000 C 
ENDBRANCH   4   6
ENDBRANCH   3   4
ENDBRANCH   1   3
BRANCH   1   7
ATOM      7  C   UNL     1       7.926  -4.738  23.792  0.00  0.00    +0.000 C 
BRANCH   7   8
ATOM      8  C   UNL     1       8.826  -5.041  24.956  0.00  0.00    +0.000 C 
ATOM      9  C   UNL     1       8.403  -5.181  26.223  0.00  0.00    +0.000 C 
ENDBRANCH   7   8
ENDBRANCH   1   7
TORSDOF 5
ENDMDL
MODEL 9
REMARK VINA RESULT:      -3.3      2.634      3.012
REMARK  Name = 
REMARK  5 active torsions:
REMARK  status: ('A' for Active; 'I' for Inactive)
REMARK    1  A    between atoms: C_2  and  C_3
REMARK    2  A    between atoms: C_3  and  S_4
REMARK    3  A    between atoms: S_4  and  S_5
REMARK    4  A    between atoms: S_5  and  C_7
REMARK    5  A    between atoms: C_7  and  C_8
REMARK                            x       y       z     vdW  Elec       q    Type
REMARK                         _______ _______ _______ _____ _____    ______ ____
ROOT
ATOM      1  S   UNL     1       8.421  -2.046  22.587  0.00  0.00    +0.000 S 
ATOM      2  O   UNL     1       7.286  -1.099  22.853  0.00  0.00    +0.000 OA
ENDROOT
BRANCH   1   3
ATOM      3  S   UNL     1       9.030  -2.378  24.497  0.00  0.00    +0.000 S 
BRANCH   3   4
ATOM      4  C   UNL     1       7.783  -3.566  25.072  0.00  0.00    +0.000 C 
BRANCH   4   6
ATOM      5  C   UNL     1       9.736  -5.097  25.485  0.00  0.00    +0.000 C 
ATOM      6  C   UNL     1       8.458  -4.748  25.706  0.00  0.00    +0.000 C 
ENDBRANCH   4   6
ENDBRANCH   3   4
ENDBRANCH   1   3
BRANCH   1   7
ATOM      7  C   UNL     1       9.829  -1.096  21.913  0.00  0.00    +0.000 C 
BRANCH   7   8
ATOM      8  C   UNL     1       9.396   0.273  21.469  0.00  0.00    +0.000 C 
ATOM      9  C   UNL     1       9.877   1.420  21.977  0.00  0.00    +0.000 C 
ENDBRANCH   7   8
ENDBRANCH   1   7
TORSDOF 5
ENDMDL
