MODEL 1
REMARK VINA RESULT:      -7.6      0.000      0.000
REMARK  Name = 
REMARK  4 active torsions:
REMARK  status: ('A' for Active; 'I' for Inactive)
REMARK    1  A    between atoms: O_1  and  C_2
REMARK    2  A    between atoms: C_3  and  O_4
REMARK    3  A    between atoms: C_16  and  O_17
REMARK    4  A    between atoms: C_18  and  O_19
REMARK                            x       y       z     vdW  Elec       q    Type
REMARK                         _______ _______ _______ _____ _____    ______ ____
ROOT
ATOM      1  C   UNL     1       7.994  -4.926  26.686  0.00  0.00    +0.000 A 
ATOM      2  C   UNL     1       9.014  -4.655  25.774  0.00  0.00    +0.000 A 
ATOM      3  C   UNL     1       8.915  -3.510  24.979  0.00  0.00    +0.000 A 
ATOM      4  C   UNL     1       7.832  -2.642  25.077  0.00  0.00    +0.000 A 
ATOM      5  C   UNL     1       6.817  -2.919  25.988  0.00  0.00    +0.000 A 
ATOM      6  C   UNL     1       6.898  -4.063  26.794  0.00  0.00    +0.000 A 
ATOM      7  C   UNL     1       5.654  -2.002  26.104  0.00  0.00    +0.000 A 
ATOM      8  O   UNL     1       4.748  -2.219  26.897  0.00  0.00    +0.000 OA
ATOM      9  O   UNL     1       5.656  -0.887  25.263  0.00  0.00    +0.000 OA
ATOM     10  C   UNL     1       6.689  -0.613  24.339  0.00  0.00    +0.000 A 
ATOM     11  C   UNL     1       7.774  -1.479  24.239  0.00  0.00    +0.000 A 
ATOM     12  C   UNL     1       8.791  -1.201  23.323  0.00  0.00    +0.000 A 
ATOM     13  C   UNL     1       8.724  -0.060  22.509  0.00  0.00    +0.000 A 
ATOM     14  C   UNL     1       7.629   0.791  22.625  0.00  0.00    +0.000 A 
ATOM     15  C   UNL     1       6.611   0.520  23.539  0.00  0.00    +0.000 A 
ATOM     16  C   UNL     1       9.951  -2.119  23.211  0.00  0.00    +0.000 A 
ATOM     17  O   UNL     1      10.856  -1.900  22.417  0.00  0.00    +0.000 OA
ATOM     18  O   UNL     1       9.950  -3.230  24.051  0.00  0.00    +0.000 OA
ENDROOT
BRANCH   1  19
ATOM     19  O   UNL     1       7.968  -6.007  27.518  0.00  0.00    +0.000 OA
ATOM     20  H   UNL     1       7.099  -6.425  27.544  0.00  0.00    +0.000 HD
ENDBRANCH   1  19
BRANCH   2  21
ATOM     21  O   UNL     1      10.116  -5.440  25.604  0.00  0.00    +0.000 OA
ATOM     22  H   UNL     1      10.583  -5.245  24.783  0.00  0.00    +0.000 HD
ENDBRANCH   2  21
BRANCH  14  23
ATOM     23  O   UNL     1       7.512   1.915  21.855  0.00  0.00    +0.000 OA
ATOM     24  H   UNL     1       8.294   1.984  21.277  0.00  0.00    +0.000 HD
ENDBRANCH  14  23
BRANCH  15  25
ATOM     25  O   UNL     1       5.547   1.371  23.635  0.00  0.00    +0.000 OA
ATOM     26  H   UNL     1       5.904   2.191  24.031  0.00  0.00    +0.000 HD
ENDBRANCH  15  25
TORSDOF 4
ENDMDL
MODEL 2
REMARK VINA RESULT:      -7.5      0.221      6.258
REMARK  Name = 
REMARK  4 active torsions:
REMARK  status: ('A' for Active; 'I' for Inactive)
REMARK    1  A    between atoms: O_1  and  C_2
REMARK    2  A    between atoms: C_3  and  O_4
REMARK    3  A    between atoms: C_16  and  O_17
REMARK    4  A    between atoms: C_18  and  O_19
REMARK                            x       y       z     vdW  Elec       q    Type
REMARK                         _______ _______ _______ _____ _____    ______ ____
ROOT
ATOM      1  C   UNL     1       7.683   0.912  22.498  0.00  0.00    +0.000 A 
ATOM      2  C   UNL     1       6.659   0.623  23.401  0.00  0.00    +0.000 A 
ATOM      3  C   UNL     1       6.755  -0.538  24.171  0.00  0.00    +0.000 A 
ATOM      4  C   UNL     1       7.838  -1.404  24.060  0.00  0.00    +0.000 A 
ATOM      5  C   UNL     1       8.855  -1.110  23.157  0.00  0.00    +0.000 A 
ATOM      6  C   UNL     1       8.778   0.050  22.374  0.00  0.00    +0.000 A 
ATOM      7  C   UNL     1      10.018  -2.025  23.027  0.00  0.00    +0.000 A 
ATOM      8  O   UNL     1      10.928  -1.791  22.242  0.00  0.00    +0.000 OA
ATOM      9  O   UNL     1      10.013  -3.156  23.845  0.00  0.00    +0.000 OA
ATOM     10  C   UNL     1       8.977  -3.450  24.759  0.00  0.00    +0.000 A 
ATOM     11  C   UNL     1       7.892  -2.585  24.873  0.00  0.00    +0.000 A 
ATOM     12  C   UNL     1       6.871  -2.882  25.779  0.00  0.00    +0.000 A 
ATOM     13  C   UNL     1       6.934  -4.040  26.568  0.00  0.00    +0.000 A 
ATOM     14  C   UNL     1       8.028  -4.890  26.437  0.00  0.00    +0.000 A 
ATOM     15  C   UNL     1       9.052  -4.599  25.535  0.00  0.00    +0.000 A 
ATOM     16  C   UNL     1       5.712  -1.965  25.906  0.00  0.00    +0.000 A 
ATOM     17  O   UNL     1       4.803  -2.201  26.691  0.00  0.00    +0.000 OA
ATOM     18  O   UNL     1       5.717  -0.836  25.090  0.00  0.00    +0.000 OA
ENDROOT
BRANCH   1  19
ATOM     19  O   UNL     1       7.711   2.010  21.687  0.00  0.00    +0.000 OA
ATOM     20  H   UNL     1       7.155   1.900  20.907  0.00  0.00    +0.000 HD
ENDBRANCH   1  19
BRANCH   2  21
ATOM     21  O   UNL     1       5.559   1.408  23.585  0.00  0.00    +0.000 OA
ATOM     22  H   UNL     1       4.902   0.990  24.154  0.00  0.00    +0.000 HD
ENDBRANCH   2  21
BRANCH  14  23
ATOM     23  O   UNL     1       8.139  -6.033  27.180  0.00  0.00    +0.000 OA
ATOM     24  H   UNL     1       9.084  -6.229  27.317  0.00  0.00    +0.000 HD
ENDBRANCH  14  23
BRANCH  15  25
ATOM     25  O   UNL     1      10.115  -5.448  25.425  0.00  0.00    +0.000 OA
ATOM     26  H   UNL     1      10.447  -5.572  26.337  0.00  0.00    +0.000 HD
ENDBRANCH  15  25
TORSDOF 4
ENDMDL
MODEL 3
REMARK VINA RESULT:      -7.2      3.737      6.204
REMARK  Name = 
REMARK  4 active torsions:
REMARK  status: ('A' for Active; 'I' for Inactive)
REMARK    1  A    between atoms: O_1  and  C_2
REMARK    2  A    between atoms: C_3  and  O_4
REMARK    3  A    between atoms: C_16  and  O_17
REMARK    4  A    between atoms: C_18  and  O_19
REMARK                            x       y       z     vdW  Elec       q    Type
REMARK                         _______ _______ _______ _____ _____    ______ ____
ROOT
ATOM      1  C   UNL     1       8.824  -3.993  24.335  0.00  0.00    +0.000 A 
ATOM      2  C   UNL     1       8.461  -4.735  25.460  0.00  0.00    +0.000 A 
ATOM      3  C   UNL     1       7.164  -5.249  25.533  0.00  0.00    +0.000 A 
ATOM      4  C   UNL     1       6.236  -5.041  24.517  0.00  0.00    +0.000 A 
ATOM      5  C   UNL     1       6.604  -4.300  23.398  0.00  0.00    +0.000 A 
ATOM      6  C   UNL     1       7.900  -3.775  23.307  0.00  0.00    +0.000 A 
ATOM      7  C   UNL     1       5.624  -4.070  22.306  0.00  0.00    +0.000 A 
ATOM      8  O   UNL     1       5.920  -3.423  21.310  0.00  0.00    +0.000 OA
ATOM      9  O   UNL     1       4.357  -4.630  22.481  0.00  0.00    +0.000 OA
ATOM     10  C   UNL     1       3.989  -5.380  23.620  0.00  0.00    +0.000 A 
ATOM     11  C   UNL     1       4.915  -5.590  24.637  0.00  0.00    +0.000 A 
ATOM     12  C   UNL     1       4.544  -6.332  25.760  0.00  0.00    +0.000 A 
ATOM     13  C   UNL     1       3.250  -6.864  25.866  0.00  0.00    +0.000 A 
ATOM     14  C   UNL     1       2.340  -6.641  24.838  0.00  0.00    +0.000 A 
ATOM     15  C   UNL     1       2.704  -5.901  23.713  0.00  0.00    +0.000 A 
ATOM     16  C   UNL     1       5.527  -6.561  26.848  0.00  0.00    +0.000 A 
ATOM     17  O   UNL     1       5.228  -7.207  27.844  0.00  0.00    +0.000 OA
ATOM     18  O   UNL     1       6.791  -6.003  26.673  0.00  0.00    +0.000 OA
ENDROOT
BRANCH   1  19
ATOM     19  O   UNL     1      10.054  -3.436  24.141  0.00  0.00    +0.000 OA
ATOM     20  H   UNL     1      10.397  -3.023  24.943  0.00  0.00    +0.000 HD
ENDBRANCH   1  19
BRANCH   2  21
ATOM     21  O   UNL     1       9.297  -4.995  26.505  0.00  0.00    +0.000 OA
ATOM     22  H   UNL     1       8.999  -4.584  27.324  0.00  0.00    +0.000 HD
ENDBRANCH   2  21
BRANCH  14  23
ATOM     23  O   UNL     1       1.065  -7.133  24.891  0.00  0.00    +0.000 OA
ATOM     24  H   UNL     1       0.492  -6.586  24.323  0.00  0.00    +0.000 HD
ENDBRANCH  14  23
BRANCH  15  25
ATOM     25  O   UNL     1       1.794  -5.696  22.716  0.00  0.00    +0.000 OA
ATOM     26  H   UNL     1       0.935  -5.989  23.082  0.00  0.00    +0.000 HD
ENDBRANCH  15  25
TORSDOF 4
ENDMDL
MODEL 4
REMARK VINA RESULT:      -7.1      3.755      5.711
REMARK  Name = 
REMARK  4 active torsions:
REMARK  status: ('A' for Active; 'I' for Inactive)
REMARK    1  A    between atoms: O_1  and  C_2
REMARK    2  A    between atoms: C_3  and  O_4
REMARK    3  A    between atoms: C_16  and  O_17
REMARK    4  A    between atoms: C_18  and  O_19
REMARK                            x       y       z     vdW  Elec       q    Type
REMARK                         _______ _______ _______ _____ _____    ______ ____
ROOT
ATOM      1  C   UNL     1       2.193  -6.581  24.922  0.00  0.00    +0.000 A 
ATOM      2  C   UNL     1       2.559  -5.850  23.792  0.00  0.00    +0.000 A 
ATOM      3  C   UNL     1       3.867  -5.367  23.702  0.00  0.00    +0.000 A 
ATOM      4  C   UNL     1       4.804  -5.599  24.705  0.00  0.00    +0.000 A 
ATOM      5  C   UNL     1       4.431  -6.329  25.829  0.00  0.00    +0.000 A 
ATOM      6  C   UNL     1       3.124  -6.821  25.939  0.00  0.00    +0.000 A 
ATOM      7  C   UNL     1       5.420  -6.584  26.908  0.00  0.00    +0.000 A 
ATOM      8  O   UNL     1       5.121  -7.224  27.908  0.00  0.00    +0.000 OA
ATOM      9  O   UNL     1       6.699  -6.058  26.716  0.00  0.00    +0.000 OA
ATOM     10  C   UNL     1       7.070  -5.316  25.572  0.00  0.00    +0.000 A 
ATOM     11  C   UNL     1       6.136  -5.083  24.567  0.00  0.00    +0.000 A 
ATOM     12  C   UNL     1       6.510  -4.349  23.440  0.00  0.00    +0.000 A 
ATOM     13  C   UNL     1       7.815  -3.850  23.317  0.00  0.00    +0.000 A 
ATOM     14  C   UNL     1       8.733  -4.094  24.334  0.00  0.00    +0.000 A 
ATOM     15  C   UNL     1       8.366  -4.827  25.462  0.00  0.00    +0.000 A 
ATOM     16  C   UNL     1       5.520  -4.097  22.364  0.00  0.00    +0.000 A 
ATOM     17  O   UNL     1       5.820  -3.456  21.365  0.00  0.00    +0.000 OA
ATOM     18  O   UNL     1       4.244  -4.624  22.556  0.00  0.00    +0.000 OA
ENDROOT
BRANCH   1  19
ATOM     19  O   UNL     1       0.951  -7.106  25.134  0.00  0.00    +0.000 OA
ATOM     20  H   UNL     1       0.302  -6.427  25.354  0.00  0.00    +0.000 HD
ENDBRANCH   1  19
BRANCH   2  21
ATOM     21  O   UNL     1       1.717  -5.571  22.756  0.00  0.00    +0.000 OA
ATOM     22  H   UNL     1       2.172  -5.564  21.906  0.00  0.00    +0.000 HD
ENDBRANCH   2  21
BRANCH  14  23
ATOM     23  O   UNL     1      10.017  -3.628  24.267  0.00  0.00    +0.000 OA
ATOM     24  H   UNL     1      10.014  -2.759  23.825  0.00  0.00    +0.000 HD
ENDBRANCH  14  23
BRANCH  15  25
ATOM     25  O   UNL     1       9.284  -5.055  26.447  0.00  0.00    +0.000 OA
ATOM     26  H   UNL     1       9.126  -4.361  27.118  0.00  0.00    +0.000 HD
ENDBRANCH  15  25
TORSDOF 4
ENDMDL
MODEL 5
REMARK VINA RESULT:      -7.0      0.964      3.789
REMARK  Name = 
REMARK  4 active torsions:
REMARK  status: ('A' for Active; 'I' for Inactive)
REMARK    1  A    between atoms: O_1  and  C_2
REMARK    2  A    between atoms: C_3  and  O_4
REMARK    3  A    between atoms: C_16  and  O_17
REMARK    4  A    between atoms: C_18  and  O_19
REMARK                            x       y       z     vdW  Elec       q    Type
REMARK                         _______ _______ _______ _____ _____    ______ ____
ROOT
ATOM      1  C   UNL     1       6.779  -4.373  27.386  0.00  0.00    +0.000 A 
ATOM      2  C   UNL     1       6.026  -3.228  27.124  0.00  0.00    +0.000 A 
ATOM      3  C   UNL     1       6.426  -2.388  26.082  0.00  0.00    +0.000 A 
ATOM      4  C   UNL     1       7.548  -2.666  25.306  0.00  0.00    +0.000 A 
ATOM      5  C   UNL     1       8.294  -3.810  25.573  0.00  0.00    +0.000 A 
ATOM      6  C   UNL     1       7.910  -4.664  26.615  0.00  0.00    +0.000 A 
ATOM      7  C   UNL     1       9.494  -4.120  24.754  0.00  0.00    +0.000 A 
ATOM      8  O   UNL     1      10.169  -5.119  24.965  0.00  0.00    +0.000 OA
ATOM      9  O   UNL     1       9.803  -3.214  23.737  0.00  0.00    +0.000 OA
ATOM     10  C   UNL     1       9.042  -2.054  23.472  0.00  0.00    +0.000 A 
ATOM     11  C   UNL     1       7.919  -1.773  24.246  0.00  0.00    +0.000 A 
ATOM     12  C   UNL     1       7.172  -0.624  23.978  0.00  0.00    +0.000 A 
ATOM     13  C   UNL     1       7.544   0.241  22.939  0.00  0.00    +0.000 A 
ATOM     14  C   UNL     1       8.671  -0.059  22.178  0.00  0.00    +0.000 A 
ATOM     15  C   UNL     1       9.421  -1.205  22.440  0.00  0.00    +0.000 A 
ATOM     16  C   UNL     1       5.973  -0.319  24.798  0.00  0.00    +0.000 A 
ATOM     17  O   UNL     1       5.300   0.681  24.585  0.00  0.00    +0.000 OA
ATOM     18  O   UNL     1       5.665  -1.223  25.811  0.00  0.00    +0.000 OA
ENDROOT
BRANCH   1  19
ATOM     19  O   UNL     1       6.499  -5.273  28.372  0.00  0.00    +0.000 OA
ATOM     20  H   UNL     1       5.701  -5.039  28.862  0.00  0.00    +0.000 HD
ENDBRANCH   1  19
BRANCH   2  21
ATOM     21  O   UNL     1       4.912  -2.869  27.824  0.00  0.00    +0.000 OA
ATOM     22  H   UNL     1       4.209  -3.524  27.754  0.00  0.00    +0.000 HD
ENDBRANCH   2  21
BRANCH  14  23
ATOM     23  O   UNL     1       9.081   0.751  21.156  0.00  0.00    +0.000 OA
ATOM     24  H   UNL     1       8.530   0.572  20.371  0.00  0.00    +0.000 HD
ENDBRANCH  14  23
BRANCH  15  25
ATOM     25  O   UNL     1      10.522  -1.479  21.680  0.00  0.00    +0.000 OA
ATOM     26  H   UNL     1      11.258  -1.587  22.315  0.00  0.00    +0.000 HD
ENDBRANCH  15  25
TORSDOF 4
ENDMDL
MODEL 6
REMARK VINA RESULT:      -7.0      0.961      4.982
REMARK  Name = 
REMARK  4 active torsions:
REMARK  status: ('A' for Active; 'I' for Inactive)
REMARK    1  A    between atoms: O_1  and  C_2
REMARK    2  A    between atoms: C_3  and  O_4
REMARK    3  A    between atoms: C_16  and  O_17
REMARK    4  A    between atoms: C_18  and  O_19
REMARK                            x       y       z     vdW  Elec       q    Type
REMARK                         _______ _______ _______ _____ _____    ______ ____
ROOT
ATOM      1  C   UNL     1       8.713  -0.020  22.202  0.00  0.00    +0.000 A 
ATOM      2  C   UNL     1       9.459  -1.169  22.467  0.00  0.00    +0.000 A 
ATOM      3  C   UNL     1       9.044  -2.013  23.499  0.00  0.00    +0.000 A 
ATOM      4  C   UNL     1       7.913  -1.737  24.262  0.00  0.00    +0.000 A 
ATOM      5  C   UNL     1       7.174  -0.589  23.992  0.00  0.00    +0.000 A 
ATOM      6  C   UNL     1       7.574   0.271  22.961  0.00  0.00    +0.000 A 
ATOM      7  C   UNL     1       5.964  -0.280  24.798  0.00  0.00    +0.000 A 
ATOM      8  O   UNL     1       5.294   0.721  24.583  0.00  0.00    +0.000 OA
ATOM      9  O   UNL     1       5.640  -1.192  25.804  0.00  0.00    +0.000 OA
ATOM     10  C   UNL     1       6.395  -2.355  26.074  0.00  0.00    +0.000 A 
ATOM     11  C   UNL     1       7.527  -2.634  25.313  0.00  0.00    +0.000 A 
ATOM     12  C   UNL     1       8.269  -3.786  25.585  0.00  0.00    +0.000 A 
ATOM     13  C   UNL     1       7.881  -4.656  26.614  0.00  0.00    +0.000 A 
ATOM     14  C   UNL     1       6.746  -4.356  27.363  0.00  0.00    +0.000 A 
ATOM     15  C   UNL     1       6.000  -3.208  27.096  0.00  0.00    +0.000 A 
ATOM     16  C   UNL     1       9.475  -4.091  24.777  0.00  0.00    +0.000 A 
ATOM     17  O   UNL     1      10.145  -5.092  24.994  0.00  0.00    +0.000 OA
ATOM     18  O   UNL     1       9.799  -3.182  23.772  0.00  0.00    +0.000 OA
ENDROOT
BRANCH   1  19
ATOM     19  O   UNL     1       9.009   0.885  21.225  0.00  0.00    +0.000 OA
ATOM     20  H   UNL     1       9.277   0.458  20.402  0.00  0.00    +0.000 HD
ENDBRANCH   1  19
BRANCH   2  21
ATOM     21  O   UNL     1      10.579  -1.529  21.776  0.00  0.00    +0.000 OA
ATOM     22  H   UNL     1      10.385  -2.135  21.053  0.00  0.00    +0.000 HD
ENDBRANCH   2  21
BRANCH  14  23
ATOM     23  O   UNL     1       6.325  -5.167  28.380  0.00  0.00    +0.000 OA
ATOM     24  H   UNL     1       5.360  -5.284  28.311  0.00  0.00    +0.000 HD
ENDBRANCH  14  23
BRANCH  15  25
ATOM     25  O   UNL     1       4.891  -2.936  27.844  0.00  0.00    +0.000 OA
ATOM     26  H   UNL     1       4.439  -3.795  27.963  0.00  0.00    +0.000 HD
ENDBRANCH  15  25
TORSDOF 4
ENDMDL
MODEL 7
REMARK VINA RESULT:      -6.9      2.434      3.472
REMARK  Name = 
REMARK  4 active torsions:
REMARK  status: ('A' for Active; 'I' for Inactive)
REMARK    1  A    between atoms: O_1  and  C_2
REMARK    2  A    between atoms: C_3  and  O_4
REMARK    3  A    between atoms: C_16  and  O_17
REMARK    4  A    between atoms: C_18  and  O_19
REMARK                            x       y       z     vdW  Elec       q    Type
REMARK                         _______ _______ _______ _____ _____    ______ ____
ROOT
ATOM      1  C   UNL     1       6.147  -5.584  25.728  0.00  0.00    +0.000 A 
ATOM      2  C   UNL     1       6.677  -4.633  26.600  0.00  0.00    +0.000 A 
ATOM      3  C   UNL     1       7.384  -3.554  26.064  0.00  0.00    +0.000 A 
ATOM      4  C   UNL     1       7.568  -3.408  24.692  0.00  0.00    +0.000 A 
ATOM      5  C   UNL     1       7.036  -4.361  23.828  0.00  0.00    +0.000 A 
ATOM      6  C   UNL     1       6.325  -5.451  24.347  0.00  0.00    +0.000 A 
ATOM      7  C   UNL     1       7.224  -4.219  22.361  0.00  0.00    +0.000 A 
ATOM      8  O   UNL     1       6.767  -5.041  21.578  0.00  0.00    +0.000 OA
ATOM      9  O   UNL     1       7.946  -3.103  21.933  0.00  0.00    +0.000 OA
ATOM     10  C   UNL     1       8.484  -2.140  22.815  0.00  0.00    +0.000 A 
ATOM     11  C   UNL     1       8.302  -2.282  24.188  0.00  0.00    +0.000 A 
ATOM     12  C   UNL     1       8.837  -1.326  25.054  0.00  0.00    +0.000 A 
ATOM     13  C   UNL     1       9.552  -0.230  24.549  0.00  0.00    +0.000 A 
ATOM     14  C   UNL     1       9.723  -0.108  23.174  0.00  0.00    +0.000 A 
ATOM     15  C   UNL     1       9.190  -1.059  22.303  0.00  0.00    +0.000 A 
ATOM     16  C   UNL     1       8.645  -1.472  26.518  0.00  0.00    +0.000 A 
ATOM     17  O   UNL     1       9.104  -0.649  27.300  0.00  0.00    +0.000 OA
ATOM     18  O   UNL     1       7.925  -2.585  26.945  0.00  0.00    +0.000 OA
ENDROOT
BRANCH   1  19
ATOM     19  O   UNL     1       5.439  -6.682  26.121  0.00  0.00    +0.000 OA
ATOM     20  H   UNL     1       5.173  -6.632  27.048  0.00  0.00    +0.000 HD
ENDBRANCH   1  19
BRANCH   2  21
ATOM     21  O   UNL     1       6.550  -4.685  27.957  0.00  0.00    +0.000 OA
ATOM     22  H   UNL     1       6.196  -5.528  28.260  0.00  0.00    +0.000 HD
ENDBRANCH   2  21
BRANCH  14  23
ATOM     23  O   UNL     1      10.414   0.939  22.629  0.00  0.00    +0.000 OA
ATOM     24  H   UNL     1      11.369   0.768  22.720  0.00  0.00    +0.000 HD
ENDBRANCH  14  23
BRANCH  15  25
ATOM     25  O   UNL     1       9.370  -0.917  20.957  0.00  0.00    +0.000 OA
ATOM     26  H   UNL     1       9.930  -1.672  20.687  0.00  0.00    +0.000 HD
ENDBRANCH  15  25
TORSDOF 4
ENDMDL
MODEL 8
REMARK VINA RESULT:      -6.9      2.442      5.337
REMARK  Name = 
REMARK  4 active torsions:
REMARK  status: ('A' for Active; 'I' for Inactive)
REMARK    1  A    between atoms: O_1  and  C_2
REMARK    2  A    between atoms: C_3  and  O_4
REMARK    3  A    between atoms: C_16  and  O_17
REMARK    4  A    between atoms: C_18  and  O_19
REMARK                            x       y       z     vdW  Elec       q    Type
REMARK                         _______ _______ _______ _____ _____    ______ ____
ROOT
ATOM      1  C   UNL     1       9.769  -0.103  23.150  0.00  0.00    +0.000 A 
ATOM      2  C   UNL     1       9.239  -1.058  22.283  0.00  0.00    +0.000 A 
ATOM      3  C   UNL     1       8.537  -2.137  22.824  0.00  0.00    +0.000 A 
ATOM      4  C   UNL     1       8.356  -2.280  24.197  0.00  0.00    +0.000 A 
ATOM      5  C   UNL     1       8.888  -1.323  25.056  0.00  0.00    +0.000 A 
ATOM      6  C   UNL     1       9.596  -0.233  24.532  0.00  0.00    +0.000 A 
ATOM      7  C   UNL     1       8.704  -1.461  26.524  0.00  0.00    +0.000 A 
ATOM      8  O   UNL     1       9.160  -0.636  27.304  0.00  0.00    +0.000 OA
ATOM      9  O   UNL     1       7.986  -2.577  26.957  0.00  0.00    +0.000 OA
ATOM     10  C   UNL     1       7.449  -3.545  26.079  0.00  0.00    +0.000 A 
ATOM     11  C   UNL     1       7.628  -3.406  24.705  0.00  0.00    +0.000 A 
ATOM     12  C   UNL     1       7.094  -4.367  23.844  0.00  0.00    +0.000 A 
ATOM     13  C   UNL     1       6.384  -5.464  24.353  0.00  0.00    +0.000 A 
ATOM     14  C   UNL     1       6.218  -5.584  25.730  0.00  0.00    +0.000 A 
ATOM     15  C   UNL     1       6.747  -4.627  26.596  0.00  0.00    +0.000 A 
ATOM     16  C   UNL     1       7.280  -4.224  22.378  0.00  0.00    +0.000 A 
ATOM     17  O   UNL     1       6.824  -5.052  21.600  0.00  0.00    +0.000 OA
ATOM     18  O   UNL     1       7.996  -3.110  21.946  0.00  0.00    +0.000 OA
ENDROOT
BRANCH   1  19
ATOM     19  O   UNL     1      10.474   0.996  22.752  0.00  0.00    +0.000 OA
ATOM     20  H   UNL     1      11.042   0.809  21.994  0.00  0.00    +0.000 HD
ENDBRANCH   1  19
BRANCH   2  21
ATOM     21  O   UNL     1       9.360  -1.008  20.925  0.00  0.00    +0.000 OA
ATOM     22  H   UNL     1       8.831  -0.302  20.535  0.00  0.00    +0.000 HD
ENDBRANCH   2  21
BRANCH  14  23
ATOM     23  O   UNL     1       5.537  -6.634  26.280  0.00  0.00    +0.000 OA
ATOM     24  H   UNL     1       5.195  -7.198  25.562  0.00  0.00    +0.000 HD
ENDBRANCH  14  23
BRANCH  15  25
ATOM     25  O   UNL     1       6.571  -4.766  27.943  0.00  0.00    +0.000 OA
ATOM     26  H   UNL     1       5.779  -4.233  28.159  0.00  0.00    +0.000 HD
ENDBRANCH  15  25
TORSDOF 4
ENDMDL
MODEL 9
REMARK VINA RESULT:      -6.8      3.591      6.896
REMARK  Name = 
REMARK  4 active torsions:
REMARK  status: ('A' for Active; 'I' for Inactive)
REMARK    1  A    between atoms: O_1  and  C_2
REMARK    2  A    between atoms: C_3  and  O_4
REMARK    3  A    between atoms: C_16  and  O_17
REMARK    4  A    between atoms: C_18  and  O_19
REMARK                            x       y       z     vdW  Elec       q    Type
REMARK                         _______ _______ _______ _____ _____    ______ ____
ROOT
ATOM      1  C   UNL     1       7.558  -3.360  22.690  0.00  0.00    +0.000 A 
ATOM      2  C   UNL     1       6.221  -3.541  22.336  0.00  0.00    +0.000 A 
ATOM      3  C   UNL     1       5.399  -4.284  23.187  0.00  0.00    +0.000 A 
ATOM      4  C   UNL     1       5.879  -4.840  24.369  0.00  0.00    +0.000 A 
ATOM      5  C   UNL     1       7.214  -4.655  24.715  0.00  0.00    +0.000 A 
ATOM      6  C   UNL     1       8.056  -3.914  23.874  0.00  0.00    +0.000 A 
ATOM      7  C   UNL     1       7.742  -5.242  25.973  0.00  0.00    +0.000 A 
ATOM      8  O   UNL     1       8.912  -5.095  26.304  0.00  0.00    +0.000 OA
ATOM      9  O   UNL     1       6.834  -5.965  26.750  0.00  0.00    +0.000 OA
ATOM     10  C   UNL     1       5.480  -6.150  26.392  0.00  0.00    +0.000 A 
ATOM     11  C   UNL     1       4.996  -5.595  25.211  0.00  0.00    +0.000 A 
ATOM     12  C   UNL     1       3.656  -5.782  24.864  0.00  0.00    +0.000 A 
ATOM     13  C   UNL     1       2.803  -6.522  25.695  0.00  0.00    +0.000 A 
ATOM     14  C   UNL     1       3.308  -7.069  26.871  0.00  0.00    +0.000 A 
ATOM     15  C   UNL     1       4.645  -6.885  27.224  0.00  0.00    +0.000 A 
ATOM     16  C   UNL     1       3.133  -5.193  23.607  0.00  0.00    +0.000 A 
ATOM     17  O   UNL     1       1.964  -5.342  23.278  0.00  0.00    +0.000 OA
ATOM     18  O   UNL     1       4.039  -4.471  22.833  0.00  0.00    +0.000 OA
ENDROOT
BRANCH   1  19
ATOM     19  O   UNL     1       8.465  -2.659  21.949  0.00  0.00    +0.000 OA
ATOM     20  H   UNL     1       8.040  -2.103  21.284  0.00  0.00    +0.000 HD
ENDBRANCH   1  19
BRANCH   2  21
ATOM     21  O   UNL     1       5.654  -3.036  21.203  0.00  0.00    +0.000 OA
ATOM     22  H   UNL     1       6.312  -2.712  20.577  0.00  0.00    +0.000 HD
ENDBRANCH   2  21
BRANCH  14  23
ATOM     23  O   UNL     1       2.521  -7.801  27.716  0.00  0.00    +0.000 OA
ATOM     24  H   UNL     1       2.873  -8.709  27.767  0.00  0.00    +0.000 HD
ENDBRANCH  14  23
BRANCH  15  25
ATOM     25  O   UNL     1       5.117  -7.430  28.383  0.00  0.00    +0.000 OA
ATOM     26  H   UNL     1       4.758  -8.340  28.410  0.00  0.00    +0.000 HD
ENDBRANCH  15  25
TORSDOF 4
ENDMDL
