MODEL 1
REMARK VINA RESULT:      -5.6      0.000      0.000
REMARK  Name = 
REMARK  13 active torsions:
REMARK  status: ('A' for Active; 'I' for Inactive)
REMARK    1  A    between atoms: N_1  and  C_2
REMARK    2  A    between atoms: C_2  and  C_3
REMARK    3  A    between atoms: C_2  and  C_18
REMARK    4  A    between atoms: C_3  and  C_4
REMARK    5  A    between atoms: C_4  and  C_5
REMARK    6  A    between atoms: N_7  and  C_8
REMARK    7  A    between atoms: C_8  and  C_9
REMARK    8  A    between atoms: C_8  and  C_11
REMARK    9  A    between atoms: C_9  and  S_10
REMARK   10  A    between atoms: N_13  and  CA_14
REMARK   11  A    between atoms: CA_14  and  C_15
REMARK   12  A    between atoms: C_15  and  O_16
REMARK   13  A    between atoms: C_18  and  O_19
REMARK                            x       y       z     vdW  Elec       q    Type
REMARK                         _______ _______ _______ _____ _____    ______ ____
ROOT
ATOM      1  C   UNK A   1       9.635  -1.441  22.322  0.00  0.00    +0.000 C 
ATOM      2  O   UNK A   1      10.750  -1.943  22.434  0.00  0.00    +0.000 OA
ATOM      3  N   UNK A   1       8.539  -1.903  23.000  0.00  0.00    +0.000 N 
ATOM      4  H   UNK A   1       7.616  -1.515  22.821  0.00  0.00    +0.000 HD
ENDROOT
BRANCH   1   5
ATOM      5  C   UNK A   1       9.378  -0.244  21.435  0.00  0.00    +0.000 C 
BRANCH   5   6
ATOM      6  C   UNK A   1       8.508   0.778  22.176  0.00  0.00    +0.000 C 
BRANCH   6   7
ATOM      7  C   UNK A   1       9.275   1.985  22.723  0.00  0.00    +0.000 C 
BRANCH   7   8
ATOM      8  N   UNK A   1      10.366   2.440  21.809  0.00  0.00    +0.000 NA
ATOM      9  H   UNK A   1      10.974   3.064  22.351  0.00  0.00    +0.000 HD
ATOM     10  H   UNK A   1       9.979   3.056  21.090  0.00  0.00    +0.000 HD
ENDBRANCH   7   8
BRANCH   7  11
ATOM     11  C   UNK A   1       9.868   1.682  24.109  0.00  0.00    +0.000 C 
ATOM     12  O   UNK A   1      10.969   1.196  24.312  0.00  0.00    +0.000 OA
BRANCH  11  13
ATOM     13  O   UNK A   1       9.017   2.054  25.100  0.00  0.00    +0.000 OA
ATOM     14  H   UNK A   1       8.595   2.895  24.787  0.00  0.00    +0.000 HD
ENDBRANCH  11  13
ENDBRANCH   7  11
ENDBRANCH   6   7
ENDBRANCH   5   6
ENDBRANCH   1   5
BRANCH   3  15
ATOM     15  C   UNK A   1       8.622  -3.036  23.916  0.00  0.00    +0.000 C 
BRANCH  15  16
ATOM     16  C   UNK A   1       7.933  -4.239  23.246  0.00  0.00    +0.000 C 
ATOM     17  O   UNK A   1       8.257  -5.397  23.488  0.00  0.00    +0.000 OA
ATOM     18  N   GLY A   2       7.009  -3.914  22.267  0.00  0.00    +0.000 N 
ATOM     19  H   GLY A   2       6.563  -3.004  22.342  0.00  0.00    +0.000 HD
BRANCH  18  20
ATOM     20  CA  GLY A   2       6.201  -4.966  21.633  0.00  0.00    +0.000 C 
BRANCH  20  21
ATOM     21  C   GLY A   2       5.069  -5.494  22.518  0.00  0.00    +0.000 C 
ATOM     22  OXT GLY A   2       4.005  -4.921  22.675  0.00  0.00    +0.000 OA
BRANCH  21  23
ATOM     23  O   GLY A   2       5.339  -6.696  23.083  0.00  0.00    +0.000 OA
ATOM     24  H   GLY A   2       6.294  -6.765  23.270  0.00  0.00    +0.000 HD
ENDBRANCH  21  23
ENDBRANCH  20  21
ENDBRANCH  18  20
ENDBRANCH  15  16
BRANCH  15  25
ATOM     25  C   UNK A   1       7.902  -2.800  25.255  0.00  0.00    +0.000 C 
BRANCH  25  26
ATOM     26  S   UNK A   1       8.519  -1.411  26.260  0.00  0.00    +0.000 S 
ATOM     27  H   UNK A   1       8.348  -1.986  27.466  0.00  0.00    +0.000 HD
ENDBRANCH  25  26
ENDBRANCH  15  25
ENDBRANCH   3  15
TORSDOF 13
ENDMDL
MODEL 2
REMARK VINA RESULT:      -5.5      3.883      8.357
REMARK  Name = 
REMARK  13 active torsions:
REMARK  status: ('A' for Active; 'I' for Inactive)
REMARK    1  A    between atoms: N_1  and  C_2
REMARK    2  A    between atoms: C_2  and  C_3
REMARK    3  A    between atoms: C_2  and  C_18
REMARK    4  A    between atoms: C_3  and  C_4
REMARK    5  A    between atoms: C_4  and  C_5
REMARK    6  A    between atoms: N_7  and  C_8
REMARK    7  A    between atoms: C_8  and  C_9
REMARK    8  A    between atoms: C_8  and  C_11
REMARK    9  A    between atoms: C_9  and  S_10
REMARK   10  A    between atoms: N_13  and  CA_14
REMARK   11  A    between atoms: CA_14  and  C_15
REMARK   12  A    between atoms: C_15  and  O_16
REMARK   13  A    between atoms: C_18  and  O_19
REMARK                            x       y       z     vdW  Elec       q    Type
REMARK                         _______ _______ _______ _____ _____    ______ ____
ROOT
ATOM      1  C   UNK A   1       8.305   2.574  22.217  0.00  0.00    +0.000 C 
ATOM      2  O   UNK A   1       7.187   2.926  21.851  0.00  0.00    +0.000 OA
ATOM      3  N   UNK A   1       9.048   3.279  23.125  0.00  0.00    +0.000 N 
ATOM      4  H   UNK A   1      10.002   3.001  23.344  0.00  0.00    +0.000 HD
ENDROOT
BRANCH   1   5
ATOM      5  C   UNK A   1       8.955   1.306  21.710  0.00  0.00    +0.000 C 
BRANCH   5   6
ATOM      6  C   UNK A   1       8.522   0.115  22.571  0.00  0.00    +0.000 C 
BRANCH   6   7
ATOM      7  C   UNK A   1       9.601  -0.399  23.528  0.00  0.00    +0.000 C 
BRANCH   7   8
ATOM      8  N   UNK A   1      10.783   0.510  23.611  0.00  0.00    +0.000 NA
ATOM      9  H   UNK A   1      10.429   1.471  23.561  0.00  0.00    +0.000 HD
ATOM     10  H   UNK A   1      11.346   0.423  22.760  0.00  0.00    +0.000 HD
ENDBRANCH   7   8
BRANCH   7  11
ATOM     11  C   UNK A   1      10.071  -1.808  23.127  0.00  0.00    +0.000 C 
ATOM     12  O   UNK A   1       9.997  -2.801  23.832  0.00  0.00    +0.000 OA
BRANCH  11  13
ATOM     13  O   UNK A   1      10.562  -1.820  21.861  0.00  0.00    +0.000 OA
ATOM     14  H   UNK A   1      11.416  -2.320  21.911  0.00  0.00    +0.000 HD
ENDBRANCH  11  13
ENDBRANCH   7  11
ENDBRANCH   6   7
ENDBRANCH   5   6
ENDBRANCH   1   5
BRANCH   3  15
ATOM     15  C   UNK A   1       8.555   4.512  23.731  0.00  0.00    +0.000 C 
BRANCH  15  16
ATOM     16  C   UNK A   1       9.711   5.528  23.745  0.00  0.00    +0.000 C 
ATOM     17  O   UNK A   1       9.521   6.735  23.857  0.00  0.00    +0.000 OA
ATOM     18  N   GLY A   2      10.965   4.993  23.503  0.00  0.00    +0.000 N 
ATOM     19  H   GLY A   2      11.098   4.014  23.741  0.00  0.00    +0.000 HD
BRANCH  18  20
ATOM     20  CA  GLY A   2      12.164   5.839  23.603  0.00  0.00    +0.000 C 
BRANCH  20  21
ATOM     21  C   GLY A   2      13.285   5.441  22.639  0.00  0.00    +0.000 C 
ATOM     22  OXT GLY A   2      13.226   5.584  21.430  0.00  0.00    +0.000 OA
BRANCH  21  23
ATOM     23  O   GLY A   2      14.385   4.950  23.262  0.00  0.00    +0.000 OA
ATOM     24  H   GLY A   2      14.968   5.686  23.529  0.00  0.00    +0.000 HD
ENDBRANCH  21  23
ENDBRANCH  20  21
ENDBRANCH  18  20
ENDBRANCH  15  16
BRANCH  15  25
ATOM     25  C   UNK A   1       8.096   4.341  25.189  0.00  0.00    +0.000 C 
BRANCH  25  26
ATOM     26  S   UNK A   1       6.452   3.592  25.427  0.00  0.00    +0.000 S 
ATOM     27  H   UNK A   1       6.473   2.790  24.345  0.00  0.00    +0.000 HD
ENDBRANCH  25  26
ENDBRANCH  15  25
ENDBRANCH   3  15
TORSDOF 13
ENDMDL
MODEL 3
REMARK VINA RESULT:      -5.5      2.980      8.142
REMARK  Name = 
REMARK  13 active torsions:
REMARK  status: ('A' for Active; 'I' for Inactive)
REMARK    1  A    between atoms: N_1  and  C_2
REMARK    2  A    between atoms: C_2  and  C_3
REMARK    3  A    between atoms: C_2  and  C_18
REMARK    4  A    between atoms: C_3  and  C_4
REMARK    5  A    between atoms: C_4  and  C_5
REMARK    6  A    between atoms: N_7  and  C_8
REMARK    7  A    between atoms: C_8  and  C_9
REMARK    8  A    between atoms: C_8  and  C_11
REMARK    9  A    between atoms: C_9  and  S_10
REMARK   10  A    between atoms: N_13  and  CA_14
REMARK   11  A    between atoms: CA_14  and  C_15
REMARK   12  A    between atoms: C_15  and  O_16
REMARK   13  A    between atoms: C_18  and  O_19
REMARK                            x       y       z     vdW  Elec       q    Type
REMARK                         _______ _______ _______ _____ _____    ______ ____
ROOT
ATOM      1  C   UNK A   1       9.845  -1.007  23.468  0.00  0.00    +0.000 C 
ATOM      2  O   UNK A   1      10.388  -1.441  22.455  0.00  0.00    +0.000 OA
ATOM      3  N   UNK A   1       9.580   0.322  23.659  0.00  0.00    +0.000 N 
ATOM      4  H   UNK A   1       9.205   0.655  24.544  0.00  0.00    +0.000 HD
ENDROOT
BRANCH   1   5
ATOM      5  C   UNK A   1       9.399  -1.914  24.592  0.00  0.00    +0.000 C 
BRANCH   5   6
ATOM      6  C   UNK A   1       9.639  -3.379  24.209  0.00  0.00    +0.000 C 
BRANCH   6   7
ATOM      7  C   UNK A   1       9.296  -4.386  25.310  0.00  0.00    +0.000 C 
BRANCH   7   8
ATOM      8  N   UNK A   1      10.326  -5.457  25.456  0.00  0.00    +0.000 NA
ATOM      9  H   UNK A   1       9.827  -6.331  25.658  0.00  0.00    +0.000 HD
ATOM     10  H   UNK A   1      10.873  -5.298  26.306  0.00  0.00    +0.000 HD
ENDBRANCH   7   8
BRANCH   7  11
ATOM     11  C   UNK A   1       7.923  -5.032  25.061  0.00  0.00    +0.000 C 
ATOM     12  O   UNK A   1       7.151  -5.403  25.932  0.00  0.00    +0.000 OA
BRANCH  11  13
ATOM     13  O   UNK A   1       7.652  -5.117  23.733  0.00  0.00    +0.000 OA
ATOM     14  H   UNK A   1       7.603  -6.087  23.533  0.00  0.00    +0.000 HD
ENDBRANCH  11  13
ENDBRANCH   7  11
ENDBRANCH   6   7
ENDBRANCH   5   6
ENDBRANCH   1   5
BRANCH   3  15
ATOM     15  C   UNK A   1       9.925   1.327  22.659  0.00  0.00    +0.000 C 
BRANCH  15  16
ATOM     16  C   UNK A   1      10.321   2.617  23.400  0.00  0.00    +0.000 C 
ATOM     17  O   UNK A   1       9.774   2.968  24.441  0.00  0.00    +0.000 OA
ATOM     18  N   GLY A   2      11.251   3.407  22.746  0.00  0.00    +0.000 N 
ATOM     19  H   GLY A   2      11.879   2.936  22.102  0.00  0.00    +0.000 HD
BRANCH  18  20
ATOM     20  CA  GLY A   2      11.797   4.605  23.402  0.00  0.00    +0.000 C 
BRANCH  20  21
ATOM     21  C   GLY A   2      13.046   5.169  22.720  0.00  0.00    +0.000 C 
ATOM     22  OXT GLY A   2      13.023   5.831  21.697  0.00  0.00    +0.000 OA
BRANCH  21  23
ATOM     23  O   GLY A   2      14.194   4.904  23.390  0.00  0.00    +0.000 OA
ATOM     24  H   GLY A   2      14.232   5.440  24.205  0.00  0.00    +0.000 HD
ENDBRANCH  21  23
ENDBRANCH  20  21
ENDBRANCH  18  20
ENDBRANCH  15  16
BRANCH  15  25
ATOM     25  C   UNK A   1       8.758   1.692  21.725  0.00  0.00    +0.000 C 
BRANCH  25  26
ATOM     26  S   UNK A   1       7.090   1.574  22.446  0.00  0.00    +0.000 S 
ATOM     27  H   UNK A   1       6.566   0.738  21.529  0.00  0.00    +0.000 HD
ENDBRANCH  25  26
ENDBRANCH  15  25
ENDBRANCH   3  15
TORSDOF 13
ENDMDL
MODEL 4
REMARK VINA RESULT:      -5.5      2.529      6.506
REMARK  Name = 
REMARK  13 active torsions:
REMARK  status: ('A' for Active; 'I' for Inactive)
REMARK    1  A    between atoms: N_1  and  C_2
REMARK    2  A    between atoms: C_2  and  C_3
REMARK    3  A    between atoms: C_2  and  C_18
REMARK    4  A    between atoms: C_3  and  C_4
REMARK    5  A    between atoms: C_4  and  C_5
REMARK    6  A    between atoms: N_7  and  C_8
REMARK    7  A    between atoms: C_8  and  C_9
REMARK    8  A    between atoms: C_8  and  C_11
REMARK    9  A    between atoms: C_9  and  S_10
REMARK   10  A    between atoms: N_13  and  CA_14
REMARK   11  A    between atoms: CA_14  and  C_15
REMARK   12  A    between atoms: C_15  and  O_16
REMARK   13  A    between atoms: C_18  and  O_19
REMARK                            x       y       z     vdW  Elec       q    Type
REMARK                         _______ _______ _______ _____ _____    ______ ____
ROOT
ATOM      1  C   UNK A   1       6.135  -3.662  23.125  0.00  0.00    +0.000 C 
ATOM      2  O   UNK A   1       5.407  -3.550  22.141  0.00  0.00    +0.000 OA
ATOM      3  N   UNK A   1       6.871  -2.624  23.627  0.00  0.00    +0.000 N 
ATOM      4  H   UNK A   1       7.524  -2.773  24.393  0.00  0.00    +0.000 HD
ENDROOT
BRANCH   1   5
ATOM      5  C   UNK A   1       6.263  -4.962  23.886  0.00  0.00    +0.000 C 
BRANCH   5   6
ATOM      6  C   UNK A   1       6.722  -4.684  25.321  0.00  0.00    +0.000 C 
BRANCH   6   7
ATOM      7  C   UNK A   1       7.958  -5.477  25.755  0.00  0.00    +0.000 C 
BRANCH   7   8
ATOM      8  N   UNK A   1       8.031  -5.671  27.234  0.00  0.00    +0.000 NA
ATOM      9  H   UNK A   1       7.958  -4.743  27.666  0.00  0.00    +0.000 HD
ATOM     10  H   UNK A   1       8.972  -5.978  27.497  0.00  0.00    +0.000 HD
ENDBRANCH   7   8
BRANCH   7  11
ATOM     11  C   UNK A   1       9.250  -4.799  25.269  0.00  0.00    +0.000 C 
ATOM     12  O   UNK A   1       9.337  -3.643  24.885  0.00  0.00    +0.000 OA
BRANCH  11  13
ATOM     13  O   UNK A   1      10.309  -5.646  25.345  0.00  0.00    +0.000 OA
ATOM     14  H   UNK A   1      11.111  -5.084  25.194  0.00  0.00    +0.000 HD
ENDBRANCH  11  13
ENDBRANCH   7  11
ENDBRANCH   6   7
ENDBRANCH   5   6
ENDBRANCH   1   5
BRANCH   3  15
ATOM     15  C   UNK A   1       6.840  -1.295  23.025  0.00  0.00    +0.000 C 
BRANCH  15  16
ATOM     16  C   UNK A   1       8.282  -0.916  22.639  0.00  0.00    +0.000 C 
ATOM     17  O   UNK A   1       8.855  -1.417  21.677  0.00  0.00    +0.000 OA
ATOM     18  N   GLY A   2       8.921  -0.064  23.524  0.00  0.00    +0.000 N 
ATOM     19  H   GLY A   2       8.328   0.547  24.080  0.00  0.00    +0.000 HD
BRANCH  18  20
ATOM     20  CA  GLY A   2      10.257   0.463  23.211  0.00  0.00    +0.000 C 
BRANCH  20  21
ATOM     21  C   GLY A   2      10.259   1.933  22.786  0.00  0.00    +0.000 C 
ATOM     22  OXT GLY A   2      10.531   2.857  23.533  0.00  0.00    +0.000 OA
BRANCH  21  23
ATOM     23  O   GLY A   2       9.973   2.118  21.474  0.00  0.00    +0.000 OA
ATOM     24  H   GLY A   2      10.310   2.986  21.182  0.00  0.00    +0.000 HD
ENDBRANCH  21  23
ENDBRANCH  20  21
ENDBRANCH  18  20
ENDBRANCH  15  16
BRANCH  15  25
ATOM     25  C   UNK A   1       6.331  -0.199  23.976  0.00  0.00    +0.000 C 
BRANCH  25  26
ATOM     26  S   UNK A   1       5.610  -0.774  25.546  0.00  0.00    +0.000 S 
ATOM     27  H   UNK A   1       4.611  -1.507  25.017  0.00  0.00    +0.000 HD
ENDBRANCH  25  26
ENDBRANCH  15  25
ENDBRANCH   3  15
TORSDOF 13
ENDMDL
MODEL 5
REMARK VINA RESULT:      -5.4      1.996      2.324
REMARK  Name = 
REMARK  13 active torsions:
REMARK  status: ('A' for Active; 'I' for Inactive)
REMARK    1  A    between atoms: N_1  and  C_2
REMARK    2  A    between atoms: C_2  and  C_3
REMARK    3  A    between atoms: C_2  and  C_18
REMARK    4  A    between atoms: C_3  and  C_4
REMARK    5  A    between atoms: C_4  and  C_5
REMARK    6  A    between atoms: N_7  and  C_8
REMARK    7  A    between atoms: C_8  and  C_9
REMARK    8  A    between atoms: C_8  and  C_11
REMARK    9  A    between atoms: C_9  and  S_10
REMARK   10  A    between atoms: N_13  and  CA_14
REMARK   11  A    between atoms: CA_14  and  C_15
REMARK   12  A    between atoms: C_15  and  O_16
REMARK   13  A    between atoms: C_18  and  O_19
REMARK                            x       y       z     vdW  Elec       q    Type
REMARK                         _______ _______ _______ _____ _____    ______ ____
ROOT
ATOM      1  C   UNK A   1       9.797  -2.157  24.053  0.00  0.00    +0.000 C 
ATOM      2  O   UNK A   1      10.511  -2.642  23.179  0.00  0.00    +0.000 OA
ATOM      3  N   UNK A   1       8.825  -2.871  24.700  0.00  0.00    +0.000 N 
ATOM      4  H   UNK A   1       8.198  -2.415  25.360  0.00  0.00    +0.000 HD
ENDROOT
BRANCH   1   5
ATOM      5  C   UNK A   1       9.945  -0.723  24.509  0.00  0.00    +0.000 C 
BRANCH   5   6
ATOM      6  C   UNK A   1      10.335   0.166  23.323  0.00  0.00    +0.000 C 
BRANCH   6   7
ATOM      7  C   UNK A   1       9.247   0.311  22.256  0.00  0.00    +0.000 C 
BRANCH   7   8
ATOM      8  N   UNK A   1       9.506  -0.527  21.047  0.00  0.00    +0.000 NA
ATOM      9  H   UNK A   1      10.187  -0.022  20.469  0.00  0.00    +0.000 HD
ATOM     10  H   UNK A   1       8.670  -0.551  20.457  0.00  0.00    +0.000 HD
ENDBRANCH   7   8
BRANCH   7  11
ATOM     11  C   UNK A   1       9.083   1.780  21.829  0.00  0.00    +0.000 C 
ATOM     12  O   UNK A   1       8.021   2.379  21.764  0.00  0.00    +0.000 OA
BRANCH  11  13
ATOM     13  O   UNK A   1      10.285   2.350  21.556  0.00  0.00    +0.000 OA
ATOM     14  H   UNK A   1      10.592   1.932  20.711  0.00  0.00    +0.000 HD
ENDBRANCH  11  13
ENDBRANCH   7  11
ENDBRANCH   6   7
ENDBRANCH   5   6
ENDBRANCH   1   5
BRANCH   3  15
ATOM     15  C   UNK A   1       8.570  -4.275  24.396  0.00  0.00    +0.000 C 
BRANCH  15  16
ATOM     16  C   UNK A   1       7.276  -4.352  23.565  0.00  0.00    +0.000 C 
ATOM     17  O   UNK A   1       6.542  -3.382  23.405  0.00  0.00    +0.000 OA
ATOM     18  N   GLY A   2       6.943  -5.619  23.115  0.00  0.00    +0.000 N 
ATOM     19  H   GLY A   2       7.707  -6.277  22.994  0.00  0.00    +0.000 HD
BRANCH  18  20
ATOM     20  CA  GLY A   2       5.794  -5.807  22.216  0.00  0.00    +0.000 C 
BRANCH  20  21
ATOM     21  C   GLY A   2       4.477  -6.085  22.944  0.00  0.00    +0.000 C 
ATOM     22  OXT GLY A   2       3.494  -5.366  22.870  0.00  0.00    +0.000 OA
BRANCH  21  23
ATOM     23  O   GLY A   2       4.482  -7.240  23.653  0.00  0.00    +0.000 OA
ATOM     24  H   GLY A   2       5.271  -7.766  23.420  0.00  0.00    +0.000 HD
ENDBRANCH  21  23
ENDBRANCH  20  21
ENDBRANCH  18  20
ENDBRANCH  15  16
BRANCH  15  25
ATOM     25  C   UNK A   1       8.349  -5.146  25.645  0.00  0.00    +0.000 C 
BRANCH  25  26
ATOM     26  S   UNK A   1       7.143  -4.515  26.856  0.00  0.00    +0.000 S 
ATOM     27  H   UNK A   1       6.677  -5.709  27.269  0.00  0.00    +0.000 HD
ENDBRANCH  25  26
ENDBRANCH  15  25
ENDBRANCH   3  15
TORSDOF 13
ENDMDL
MODEL 6
REMARK VINA RESULT:      -5.3      3.123      6.894
REMARK  Name = 
REMARK  13 active torsions:
REMARK  status: ('A' for Active; 'I' for Inactive)
REMARK    1  A    between atoms: N_1  and  C_2
REMARK    2  A    between atoms: C_2  and  C_3
REMARK    3  A    between atoms: C_2  and  C_18
REMARK    4  A    between atoms: C_3  and  C_4
REMARK    5  A    between atoms: C_4  and  C_5
REMARK    6  A    between atoms: N_7  and  C_8
REMARK    7  A    between atoms: C_8  and  C_9
REMARK    8  A    between atoms: C_8  and  C_11
REMARK    9  A    between atoms: C_9  and  S_10
REMARK   10  A    between atoms: N_13  and  CA_14
REMARK   11  A    between atoms: CA_14  and  C_15
REMARK   12  A    between atoms: C_15  and  O_16
REMARK   13  A    between atoms: C_18  and  O_19
REMARK                            x       y       z     vdW  Elec       q    Type
REMARK                         _______ _______ _______ _____ _____    ______ ____
ROOT
ATOM      1  C   UNK A   1       8.834  -3.726  24.879  0.00  0.00    +0.000 C 
ATOM      2  O   UNK A   1       9.943  -3.643  24.357  0.00  0.00    +0.000 OA
ATOM      3  N   UNK A   1       7.669  -3.671  24.163  0.00  0.00    +0.000 N 
ATOM      4  H   UNK A   1       6.768  -3.662  24.636  0.00  0.00    +0.000 HD
ENDROOT
BRANCH   1   5
ATOM      5  C   UNK A   1       8.659  -3.922  26.368  0.00  0.00    +0.000 C 
BRANCH   5   6
ATOM      6  C   UNK A   1       8.184  -5.350  26.655  0.00  0.00    +0.000 C 
BRANCH   6   7
ATOM      7  C   UNK A   1       6.797  -5.439  27.298  0.00  0.00    +0.000 C 
BRANCH   7   8
ATOM      8  N   UNK A   1       6.801  -6.205  28.580  0.00  0.00    +0.000 NA
ATOM      9  H   UNK A   1       5.825  -6.427  28.803  0.00  0.00    +0.000 HD
ATOM     10  H   UNK A   1       7.083  -5.591  29.349  0.00  0.00    +0.000 HD
ENDBRANCH   7   8
BRANCH   7  11
ATOM     11  C   UNK A   1       5.779  -6.070  26.333  0.00  0.00    +0.000 C 
ATOM     12  O   UNK A   1       5.577  -5.705  25.186  0.00  0.00    +0.000 OA
BRANCH  11  13
ATOM     13  O   UNK A   1       5.140  -7.120  26.910  0.00  0.00    +0.000 OA
ATOM     14  H   UNK A   1       5.803  -7.533  27.520  0.00  0.00    +0.000 HD
ENDBRANCH  11  13
ENDBRANCH   7  11
ENDBRANCH   6   7
ENDBRANCH   5   6
ENDBRANCH   1   5
BRANCH   3  15
ATOM     15  C   UNK A   1       7.663  -3.512  22.712  0.00  0.00    +0.000 C 
BRANCH  15  16
ATOM     16  C   UNK A   1       7.847  -2.015  22.400  0.00  0.00    +0.000 C 
ATOM     17  O   UNK A   1       6.959  -1.192  22.594  0.00  0.00    +0.000 OA
ATOM     18  N   GLY A   2       9.039  -1.689  21.775  0.00  0.00    +0.000 N 
ATOM     19  H   GLY A   2       9.826  -2.312  21.938  0.00  0.00    +0.000 HD
BRANCH  18  20
ATOM     20  CA  GLY A   2       9.385  -0.281  21.529  0.00  0.00    +0.000 C 
BRANCH  20  21
ATOM     21  C   GLY A   2      10.119   0.390  22.692  0.00  0.00    +0.000 C 
ATOM     22  OXT GLY A   2      10.603  -0.218  23.632  0.00  0.00    +0.000 OA
BRANCH  21  23
ATOM     23  O   GLY A   2      10.226   1.735  22.562  0.00  0.00    +0.000 OA
ATOM     24  H   GLY A   2       9.369   2.108  22.282  0.00  0.00    +0.000 HD
ENDBRANCH  21  23
ENDBRANCH  20  21
ENDBRANCH  18  20
ENDBRANCH  15  16
BRANCH  15  25
ATOM     25  C   UNK A   1       6.345  -3.946  22.049  0.00  0.00    +0.000 C 
BRANCH  25  26
ATOM     26  S   UNK A   1       6.302  -5.643  21.389  0.00  0.00    +0.000 S 
ATOM     27  H   UNK A   1       6.781  -6.263  22.485  0.00  0.00    +0.000 HD
ENDBRANCH  25  26
ENDBRANCH  15  25
ENDBRANCH   3  15
TORSDOF 13
ENDMDL
MODEL 7
REMARK VINA RESULT:      -5.2      2.586      3.191
REMARK  Name = 
REMARK  13 active torsions:
REMARK  status: ('A' for Active; 'I' for Inactive)
REMARK    1  A    between atoms: N_1  and  C_2
REMARK    2  A    between atoms: C_2  and  C_3
REMARK    3  A    between atoms: C_2  and  C_18
REMARK    4  A    between atoms: C_3  and  C_4
REMARK    5  A    between atoms: C_4  and  C_5
REMARK    6  A    between atoms: N_7  and  C_8
REMARK    7  A    between atoms: C_8  and  C_9
REMARK    8  A    between atoms: C_8  and  C_11
REMARK    9  A    between atoms: C_9  and  S_10
REMARK   10  A    between atoms: N_13  and  CA_14
REMARK   11  A    between atoms: CA_14  and  C_15
REMARK   12  A    between atoms: C_15  and  O_16
REMARK   13  A    between atoms: C_18  and  O_19
REMARK                            x       y       z     vdW  Elec       q    Type
REMARK                         _______ _______ _______ _____ _____    ______ ____
ROOT
ATOM      1  C   UNK A   1       9.089  -1.551  23.325  0.00  0.00    +0.000 C 
ATOM      2  O   UNK A   1       8.503  -1.162  24.331  0.00  0.00    +0.000 OA
ATOM      3  N   UNK A   1       8.735  -2.688  22.650  0.00  0.00    +0.000 N 
ATOM      4  H   UNK A   1       9.294  -3.024  21.868  0.00  0.00    +0.000 HD
ENDROOT
BRANCH   1   5
ATOM      5  C   UNK A   1      10.249  -0.789  22.724  0.00  0.00    +0.000 C 
BRANCH   5   6
ATOM      6  C   UNK A   1       9.726   0.343  21.834  0.00  0.00    +0.000 C 
BRANCH   6   7
ATOM      7  C   UNK A   1       9.102   1.514  22.599  0.00  0.00    +0.000 C 
BRANCH   7   8
ATOM      8  N   UNK A   1       8.735   2.656  21.709  0.00  0.00    +0.000 NA
ATOM      9  H   UNK A   1       9.604   3.149  21.475  0.00  0.00    +0.000 HD
ATOM     10  H   UNK A   1       8.207   3.353  22.242  0.00  0.00    +0.000 HD
ENDBRANCH   7   8
BRANCH   7  11
ATOM     11  C   UNK A   1      10.043   2.016  23.707  0.00  0.00    +0.000 C 
ATOM     12  O   UNK A   1      11.047   2.686  23.527  0.00  0.00    +0.000 OA
BRANCH  11  13
ATOM     13  O   UNK A   1       9.600   1.643  24.935  0.00  0.00    +0.000 OA
ATOM     14  H   UNK A   1       8.612   1.607  24.862  0.00  0.00    +0.000 HD
ENDBRANCH  11  13
ENDBRANCH   7  11
ENDBRANCH   6   7
ENDBRANCH   5   6
ENDBRANCH   1   5
BRANCH   3  15
ATOM     15  C   UNK A   1       7.621  -3.525  23.083  0.00  0.00    +0.000 C 
BRANCH  15  16
ATOM     16  C   UNK A   1       8.103  -4.376  24.272  0.00  0.00    +0.000 C 
ATOM     17  O   UNK A   1       8.834  -5.350  24.126  0.00  0.00    +0.000 OA
ATOM     18  N   GLY A   2       7.555  -4.035  25.498  0.00  0.00    +0.000 N 
ATOM     19  H   GLY A   2       7.244  -3.074  25.608  0.00  0.00    +0.000 HD
BRANCH  18  20
ATOM     20  CA  GLY A   2       8.020  -4.696  26.726  0.00  0.00    +0.000 C 
BRANCH  20  21
ATOM     21  C   GLY A   2       6.955  -5.559  27.407  0.00  0.00    +0.000 C 
ATOM     22  OXT GLY A   2       6.777  -5.596  28.612  0.00  0.00    +0.000 OA
BRANCH  21  23
ATOM     23  O   GLY A   2       6.184  -6.254  26.535  0.00  0.00    +0.000 OA
ATOM     24  H   GLY A   2       5.449  -5.692  26.225  0.00  0.00    +0.000 HD
ENDBRANCH  21  23
ENDBRANCH  20  21
ENDBRANCH  18  20
ENDBRANCH  15  16
BRANCH  15  25
ATOM     25  C   UNK A   1       7.130  -4.505  22.005  0.00  0.00    +0.000 C 
BRANCH  25  26
ATOM     26  S   UNK A   1       5.659  -5.492  22.431  0.00  0.00    +0.000 S 
ATOM     27  H   UNK A   1       5.688  -5.274  23.760  0.00  0.00    +0.000 HD
ENDBRANCH  25  26
ENDBRANCH  15  25
ENDBRANCH   3  15
TORSDOF 13
ENDMDL
MODEL 8
REMARK VINA RESULT:      -5.1      1.986      2.234
REMARK  Name = 
REMARK  13 active torsions:
REMARK  status: ('A' for Active; 'I' for Inactive)
REMARK    1  A    between atoms: N_1  and  C_2
REMARK    2  A    between atoms: C_2  and  C_3
REMARK    3  A    between atoms: C_2  and  C_18
REMARK    4  A    between atoms: C_3  and  C_4
REMARK    5  A    between atoms: C_4  and  C_5
REMARK    6  A    between atoms: N_7  and  C_8
REMARK    7  A    between atoms: C_8  and  C_9
REMARK    8  A    between atoms: C_8  and  C_11
REMARK    9  A    between atoms: C_9  and  S_10
REMARK   10  A    between atoms: N_13  and  CA_14
REMARK   11  A    between atoms: CA_14  and  C_15
REMARK   12  A    between atoms: C_15  and  O_16
REMARK   13  A    between atoms: C_18  and  O_19
REMARK                            x       y       z     vdW  Elec       q    Type
REMARK                         _______ _______ _______ _____ _____    ______ ____
ROOT
ATOM      1  C   UNK A   1       9.694  -2.398  23.704  0.00  0.00    +0.000 C 
ATOM      2  O   UNK A   1      10.263  -3.426  24.065  0.00  0.00    +0.000 OA
ATOM      3  N   UNK A   1       8.509  -1.976  24.244  0.00  0.00    +0.000 N 
ATOM      4  H   UNK A   1       8.025  -1.165  23.865  0.00  0.00    +0.000 HD
ENDROOT
BRANCH   1   5
ATOM      5  C   UNK A   1      10.269  -1.491  22.641  0.00  0.00    +0.000 C 
BRANCH   5   6
ATOM      6  C   UNK A   1       9.633  -0.100  22.740  0.00  0.00    +0.000 C 
BRANCH   6   7
ATOM      7  C   UNK A   1      10.437   0.907  23.566  0.00  0.00    +0.000 C 
BRANCH   7   8
ATOM      8  N   UNK A   1       9.971   0.997  24.982  0.00  0.00    +0.000 NA
ATOM      9  H   UNK A   1       9.112   1.557  24.983  0.00  0.00    +0.000 HD
ATOM     10  H   UNK A   1      10.624   1.569  25.525  0.00  0.00    +0.000 HD
ENDBRANCH   7   8
BRANCH   7  11
ATOM     11  C   UNK A   1      10.395   2.306  22.928  0.00  0.00    +0.000 C 
ATOM     12  O   UNK A   1      10.645   3.351  23.507  0.00  0.00    +0.000 OA
BRANCH  11  13
ATOM     13  O   UNK A   1      10.067   2.237  21.612  0.00  0.00    +0.000 OA
ATOM     14  H   UNK A   1       9.116   1.959  21.588  0.00  0.00    +0.000 HD
ENDBRANCH  11  13
ENDBRANCH   7  11
ENDBRANCH   6   7
ENDBRANCH   5   6
ENDBRANCH   1   5
BRANCH   3  15
ATOM     15  C   UNK A   1       7.834  -2.724  25.300  0.00  0.00    +0.000 C 
BRANCH  15  16
ATOM     16  C   UNK A   1       6.769  -3.619  24.639  0.00  0.00    +0.000 C 
ATOM     17  O   UNK A   1       5.594  -3.607  24.992  0.00  0.00    +0.000 OA
ATOM     18  N   GLY A   2       7.255  -4.518  23.704  0.00  0.00    +0.000 N 
ATOM     19  H   GLY A   2       8.121  -4.266  23.236  0.00  0.00    +0.000 HD
BRANCH  18  20
ATOM     20  CA  GLY A   2       6.327  -5.346  22.921  0.00  0.00    +0.000 C 
BRANCH  20  21
ATOM     21  C   GLY A   2       5.936  -4.734  21.574  0.00  0.00    +0.000 C 
ATOM     22  OXT GLY A   2       5.608  -3.569  21.427  0.00  0.00    +0.000 OA
BRANCH  21  23
ATOM     23  O   GLY A   2       6.031  -5.600  20.536  0.00  0.00    +0.000 OA
ATOM     24  H   GLY A   2       6.212  -6.498  20.873  0.00  0.00    +0.000 HD
ENDBRANCH  21  23
ENDBRANCH  20  21
ENDBRANCH  18  20
ENDBRANCH  15  16
BRANCH  15  25
ATOM     25  C   UNK A   1       7.098  -1.832  26.314  0.00  0.00    +0.000 C 
BRANCH  25  26
ATOM     26  S   UNK A   1       6.552  -0.206  25.700  0.00  0.00    +0.000 S 
ATOM     27  H   UNK A   1       7.545  -0.019  24.809  0.00  0.00    +0.000 HD
ENDBRANCH  25  26
ENDBRANCH  15  25
ENDBRANCH   3  15
TORSDOF 13
ENDMDL
MODEL 9
REMARK VINA RESULT:      -5.1      2.098      2.690
REMARK  Name = 
REMARK  13 active torsions:
REMARK  status: ('A' for Active; 'I' for Inactive)
REMARK    1  A    between atoms: N_1  and  C_2
REMARK    2  A    between atoms: C_2  and  C_3
REMARK    3  A    between atoms: C_2  and  C_18
REMARK    4  A    between atoms: C_3  and  C_4
REMARK    5  A    between atoms: C_4  and  C_5
REMARK    6  A    between atoms: N_7  and  C_8
REMARK    7  A    between atoms: C_8  and  C_9
REMARK    8  A    between atoms: C_8  and  C_11
REMARK    9  A    between atoms: C_9  and  S_10
REMARK   10  A    between atoms: N_13  and  CA_14
REMARK   11  A    between atoms: CA_14  and  C_15
REMARK   12  A    between atoms: C_15  and  O_16
REMARK   13  A    between atoms: C_18  and  O_19
REMARK                            x       y       z     vdW  Elec       q    Type
REMARK                         _______ _______ _______ _____ _____    ______ ____
ROOT
ATOM      1  C   UNK A   1       8.796  -0.732  25.887  0.00  0.00    +0.000 C 
ATOM      2  O   UNK A   1       9.037  -0.830  27.087  0.00  0.00    +0.000 OA
ATOM      3  N   UNK A   1       8.363  -1.785  25.127  0.00  0.00    +0.000 N 
ATOM      4  H   UNK A   1       8.251  -1.687  24.120  0.00  0.00    +0.000 HD
ENDROOT
BRANCH   1   5
ATOM      5  C   UNK A   1       8.935   0.577  25.143  0.00  0.00    +0.000 C 
BRANCH   5   6
ATOM      6  C   UNK A   1      10.356   0.713  24.585  0.00  0.00    +0.000 C 
BRANCH   6   7
ATOM      7  C   UNK A   1      10.507   1.766  23.484  0.00  0.00    +0.000 C 
BRANCH   7   8
ATOM      8  N   UNK A   1       9.833   3.056  23.821  0.00  0.00    +0.000 NA
ATOM      9  H   UNK A   1       9.090   2.842  24.495  0.00  0.00    +0.000 HD
ATOM     10  H   UNK A   1       9.318   3.400  23.006  0.00  0.00    +0.000 HD
ENDBRANCH   7   8
BRANCH   7  11
ATOM     11  C   UNK A   1       9.964   1.246  22.143  0.00  0.00    +0.000 C 
ATOM     12  O   UNK A   1       9.975   0.079  21.784  0.00  0.00    +0.000 OA
BRANCH  11  13
ATOM     13  O   UNK A   1       9.435   2.254  21.402  0.00  0.00    +0.000 OA
ATOM     14  H   UNK A   1      10.072   3.009  21.487  0.00  0.00    +0.000 HD
ENDBRANCH  11  13
ENDBRANCH   7  11
ENDBRANCH   6   7
ENDBRANCH   5   6
ENDBRANCH   1   5
BRANCH   3  15
ATOM     15  C   UNK A   1       8.152  -3.111  25.698  0.00  0.00    +0.000 C 
BRANCH  15  16
ATOM     16  C   UNK A   1       8.355  -4.147  24.577  0.00  0.00    +0.000 C 
ATOM     17  O   UNK A   1       9.407  -4.764  24.438  0.00  0.00    +0.000 OA
ATOM     18  N   GLY A   2       7.313  -4.242  23.670  0.00  0.00    +0.000 N 
ATOM     19  H   GLY A   2       6.391  -3.975  24.004  0.00  0.00    +0.000 HD
BRANCH  18  20
ATOM     20  CA  GLY A   2       7.335  -5.272  22.621  0.00  0.00    +0.000 C 
BRANCH  20  21
ATOM     21  C   GLY A   2       6.167  -5.179  21.637  0.00  0.00    +0.000 C 
ATOM     22  OXT GLY A   2       5.791  -4.139  21.124  0.00  0.00    +0.000 OA
BRANCH  21  23
ATOM     23  O   GLY A   2       5.608  -6.379  21.344  0.00  0.00    +0.000 OA
ATOM     24  H   GLY A   2       4.853  -6.251  20.739  0.00  0.00    +0.000 HD
ENDBRANCH  21  23
ENDBRANCH  20  21
ENDBRANCH  18  20
ENDBRANCH  15  16
BRANCH  15  25
ATOM     25  C   UNK A   1       6.733  -3.326  26.250  0.00  0.00    +0.000 C 
BRANCH  25  26
ATOM     26  S   UNK A   1       6.510  -4.763  27.346  0.00  0.00    +0.000 S 
ATOM     27  H   UNK A   1       6.874  -4.159  28.494  0.00  0.00    +0.000 HD
ENDBRANCH  25  26
ENDBRANCH  15  25
ENDBRANCH   3  15
TORSDOF 13
ENDMDL
