MODEL 1
REMARK VINA RESULT:      -7.1      0.000      0.000
REMARK  Name = 
REMARK  12 active torsions:
REMARK  status: ('A' for Active; 'I' for Inactive)
REMARK    1  A    between atoms: O_1  and  C_2
REMARK    2  A    between atoms: C_2  and  C_3
REMARK    3  A    between atoms: C_5  and  O_6
REMARK    4  A    between atoms: O_6  and  C_7
REMARK    5  A    between atoms: C_8  and  C_20
REMARK    6  A    between atoms: C_12  and  O_13
REMARK    7  A    between atoms: C_15  and  O_16
REMARK    8  A    between atoms: C_23  and  O_24
REMARK    9  A    between atoms: C_25  and  O_26
REMARK   10  A    between atoms: C_28  and  O_29
REMARK   11  A    between atoms: C_30  and  O_31
REMARK   12  A    between atoms: C_32  and  O_33
REMARK                            x       y       z     vdW  Elec       q    Type
REMARK                         _______ _______ _______ _____ _____    ______ ____
ROOT
ATOM      1  C   UNL     1       7.466  -2.581  24.984  0.00  0.00    +0.000 A 
ATOM      2  C   UNL     1       6.614  -1.535  25.170  0.00  0.00    +0.000 A 
ATOM      3  O   UNL     1       6.658  -0.362  24.417  0.00  0.00    +0.000 OA
ATOM      4  C   UNL     1       7.702  -0.143  23.567  0.00  0.00    +0.000 A 
ATOM      5  C   UNL     1       8.630  -1.117  23.267  0.00  0.00    +0.000 A 
ATOM      6  C   UNL     1       9.677  -0.853  22.373  0.00  0.00    +0.000 A 
ATOM      7  C   UNL     1       9.785   0.400  21.780  0.00  0.00    +0.000 A 
ATOM      8  C   UNL     1       8.839   1.374  22.088  0.00  0.00    +0.000 A 
ATOM      9  C   UNL     1       7.794   1.121  22.981  0.00  0.00    +0.000 A 
ATOM     10  C   UNL     1       8.480  -2.422  23.889  0.00  0.00    +0.000 A 
ATOM     11  O   UNL     1       9.222  -3.312  23.481  0.00  0.00    +0.000 OA
ENDROOT
BRANCH   2  12
ATOM     12  C   UNL     1       5.520  -1.434  26.194  0.00  0.00    +0.000 A 
ATOM     13  C   UNL     1       4.295  -2.122  26.114  0.00  0.00    +0.000 A 
ATOM     14  C   UNL     1       3.313  -1.987  27.115  0.00  0.00    +0.000 A 
ATOM     15  C   UNL     1       3.552  -1.160  28.205  0.00  0.00    +0.000 A 
ATOM     16  C   UNL     1       4.721  -0.418  28.268  0.00  0.00    +0.000 A 
ATOM     17  C   UNL     1       5.690  -0.543  27.279  0.00  0.00    +0.000 A 
BRANCH  15  18
ATOM     18  O   UNL     1       2.682  -1.063  29.254  0.00  0.00    +0.000 OA
ATOM     19  H   UNL     1       2.588  -0.116  29.461  0.00  0.00    +0.000 HD
ENDBRANCH  15  18
BRANCH  16  20
ATOM     20  O   UNL     1       4.945   0.415  29.328  0.00  0.00    +0.000 OA
ATOM     21  H   UNL     1       4.209   0.235  29.948  0.00  0.00    +0.000 HD
ENDBRANCH  16  20
ENDBRANCH   2  12
BRANCH   8  22
ATOM     22  O   UNL     1       8.892   2.615  21.523  0.00  0.00    +0.000 OA
ATOM     23  H   UNL     1       8.511   2.571  20.629  0.00  0.00    +0.000 HD
ENDBRANCH   8  22
BRANCH   6  24
ATOM     24  O   UNL     1      10.631  -1.778  22.047  0.00  0.00    +0.000 OA
ATOM     25  H   UNL     1      11.264  -1.825  22.801  0.00  0.00    +0.000 HD
ENDBRANCH   6  24
BRANCH   1  26
ATOM     26  O   UNL     1       7.428  -3.738  25.744  0.00  0.00    +0.000 OA
BRANCH  26  29
ATOM     27  C   UNL     1       5.192  -5.631  23.480  0.00  0.00    +0.000 C 
ATOM     28  O   UNL     1       5.942  -4.571  24.096  0.00  0.00    +0.000 OA
ATOM     29  C   UNL     1       6.820  -4.937  25.172  0.00  0.00    +0.000 C 
ATOM     30  C   UNL     1       5.990  -5.576  26.301  0.00  0.00    +0.000 C 
ATOM     31  C   UNL     1       5.185  -6.764  25.777  0.00  0.00    +0.000 C 
ATOM     32  C   UNL     1       4.392  -6.432  24.513  0.00  0.00    +0.000 C 
BRANCH  31  33
ATOM     33  O   UNL     1       4.253  -7.183  26.804  0.00  0.00    +0.000 OA
ATOM     34  H   UNL     1       4.706  -7.805  27.402  0.00  0.00    +0.000 HD
ENDBRANCH  31  33
BRANCH  32  35
ATOM     35  O   UNL     1       3.803  -7.615  23.970  0.00  0.00    +0.000 OA
ATOM     36  H   UNL     1       3.189  -7.959  24.648  0.00  0.00    +0.000 HD
ENDBRANCH  32  35
BRANCH  30  37
ATOM     37  O   UNL     1       6.819  -6.020  27.389  0.00  0.00    +0.000 OA
ATOM     38  H   UNL     1       6.506  -5.550  28.186  0.00  0.00    +0.000 HD
ENDBRANCH  30  37
BRANCH  27  39
ATOM     39  C   UNL     1       5.927  -6.438  22.387  0.00  0.00    +0.000 C 
BRANCH  39  40
ATOM     40  O   UNL     1       5.536  -6.122  21.058  0.00  0.00    +0.000 OA
ATOM     41  H   UNL     1       6.324  -5.735  20.635  0.00  0.00    +0.000 HD
ENDBRANCH  39  40
ENDBRANCH  27  39
ENDBRANCH  26  29
ENDBRANCH   1  26
TORSDOF 12
ENDMDL
MODEL 2
REMARK VINA RESULT:      -7.1      2.498      3.894
REMARK  Name = 
REMARK  12 active torsions:
REMARK  status: ('A' for Active; 'I' for Inactive)
REMARK    1  A    between atoms: O_1  and  C_2
REMARK    2  A    between atoms: C_2  and  C_3
REMARK    3  A    between atoms: C_5  and  O_6
REMARK    4  A    between atoms: O_6  and  C_7
REMARK    5  A    between atoms: C_8  and  C_20
REMARK    6  A    between atoms: C_12  and  O_13
REMARK    7  A    between atoms: C_15  and  O_16
REMARK    8  A    between atoms: C_23  and  O_24
REMARK    9  A    between atoms: C_25  and  O_26
REMARK   10  A    between atoms: C_28  and  O_29
REMARK   11  A    between atoms: C_30  and  O_31
REMARK   12  A    between atoms: C_32  and  O_33
REMARK                            x       y       z     vdW  Elec       q    Type
REMARK                         _______ _______ _______ _____ _____    ______ ____
ROOT
ATOM      1  C   UNL     1       6.966  -4.422  24.651  0.00  0.00    +0.000 A 
ATOM      2  C   UNL     1       6.944  -3.869  25.895  0.00  0.00    +0.000 A 
ATOM      3  O   UNL     1       7.547  -2.651  26.207  0.00  0.00    +0.000 OA
ATOM      4  C   UNL     1       8.357  -2.043  25.293  0.00  0.00    +0.000 A 
ATOM      5  C   UNL     1       8.461  -2.480  23.990  0.00  0.00    +0.000 A 
ATOM      6  C   UNL     1       9.292  -1.813  23.079  0.00  0.00    +0.000 A 
ATOM      7  C   UNL     1      10.020  -0.700  23.488  0.00  0.00    +0.000 A 
ATOM      8  C   UNL     1       9.902  -0.266  24.806  0.00  0.00    +0.000 A 
ATOM      9  C   UNL     1       9.079  -0.928  25.722  0.00  0.00    +0.000 A 
ATOM     10  C   UNL     1       7.675  -3.634  23.589  0.00  0.00    +0.000 A 
ATOM     11  O   UNL     1       7.665  -3.900  22.390  0.00  0.00    +0.000 OA
ENDROOT
BRANCH   2  12
ATOM     12  C   UNL     1       6.314  -4.449  27.130  0.00  0.00    +0.000 A 
ATOM     13  C   UNL     1       5.241  -3.858  27.821  0.00  0.00    +0.000 A 
ATOM     14  C   UNL     1       4.692  -4.461  28.970  0.00  0.00    +0.000 A 
ATOM     15  C   UNL     1       5.216  -5.660  29.435  0.00  0.00    +0.000 A 
ATOM     16  C   UNL     1       6.318  -6.221  28.812  0.00  0.00    +0.000 A 
ATOM     17  C   UNL     1       6.868  -5.627  27.682  0.00  0.00    +0.000 A 
BRANCH  15  18
ATOM     18  O   UNL     1       4.665  -6.340  30.484  0.00  0.00    +0.000 OA
ATOM     19  H   UNL     1       3.784  -6.642  30.198  0.00  0.00    +0.000 HD
ENDBRANCH  15  18
BRANCH  16  20
ATOM     20  O   UNL     1       6.849  -7.388  29.284  0.00  0.00    +0.000 OA
ATOM     21  H   UNL     1       6.933  -7.962  28.496  0.00  0.00    +0.000 HD
ENDBRANCH  16  20
ENDBRANCH   2  12
BRANCH   8  22
ATOM     22  O   UNL     1      10.584   0.828  25.254  0.00  0.00    +0.000 OA
ATOM     23  H   UNL     1      11.387   0.939  24.718  0.00  0.00    +0.000 HD
ENDBRANCH   8  22
BRANCH   6  24
ATOM     24  O   UNL     1       9.442  -2.208  21.778  0.00  0.00    +0.000 OA
ATOM     25  H   UNL     1       8.792  -1.699  21.240  0.00  0.00    +0.000 HD
ENDBRANCH   6  24
BRANCH   1  26
ATOM     26  O   UNL     1       6.379  -5.640  24.349  0.00  0.00    +0.000 OA
BRANCH  26  29
ATOM     27  C   UNL     1       3.309  -7.315  25.566  0.00  0.00    +0.000 C 
ATOM     28  O   UNL     1       4.686  -6.964  25.348  0.00  0.00    +0.000 OA
ATOM     29  C   UNL     1       4.941  -5.798  24.550  0.00  0.00    +0.000 C 
ATOM     30  C   UNL     1       4.333  -6.005  23.150  0.00  0.00    +0.000 C 
ATOM     31  C   UNL     1       2.844  -6.329  23.248  0.00  0.00    +0.000 C 
ATOM     32  C   UNL     1       2.544  -7.448  24.244  0.00  0.00    +0.000 C 
BRANCH  31  33
ATOM     33  O   UNL     1       2.372  -6.742  21.941  0.00  0.00    +0.000 OA
ATOM     34  H   UNL     1       1.789  -6.046  21.585  0.00  0.00    +0.000 HD
ENDBRANCH  31  33
BRANCH  32  35
ATOM     35  O   UNL     1       1.134  -7.589  24.426  0.00  0.00    +0.000 OA
ATOM     36  H   UNL     1       0.859  -8.365  23.898  0.00  0.00    +0.000 HD
ENDBRANCH  32  35
BRANCH  30  37
ATOM     37  O   UNL     1       4.504  -4.846  22.316  0.00  0.00    +0.000 OA
ATOM     38  H   UNL     1       4.315  -5.132  21.402  0.00  0.00    +0.000 HD
ENDBRANCH  30  37
BRANCH  27  39
ATOM     39  C   UNL     1       2.592  -6.573  26.715  0.00  0.00    +0.000 C 
BRANCH  39  40
ATOM     40  O   UNL     1       1.941  -5.371  26.325  0.00  0.00    +0.000 OA
ATOM     41  H   UNL     1       2.451  -5.028  25.568  0.00  0.00    +0.000 HD
ENDBRANCH  39  40
ENDBRANCH  27  39
ENDBRANCH  26  29
ENDBRANCH   1  26
TORSDOF 12
ENDMDL
MODEL 3
REMARK VINA RESULT:      -6.9      2.214      6.272
REMARK  Name = 
REMARK  12 active torsions:
REMARK  status: ('A' for Active; 'I' for Inactive)
REMARK    1  A    between atoms: O_1  and  C_2
REMARK    2  A    between atoms: C_2  and  C_3
REMARK    3  A    between atoms: C_5  and  O_6
REMARK    4  A    between atoms: O_6  and  C_7
REMARK    5  A    between atoms: C_8  and  C_20
REMARK    6  A    between atoms: C_12  and  O_13
REMARK    7  A    between atoms: C_15  and  O_16
REMARK    8  A    between atoms: C_23  and  O_24
REMARK    9  A    between atoms: C_25  and  O_26
REMARK   10  A    between atoms: C_28  and  O_29
REMARK   11  A    between atoms: C_30  and  O_31
REMARK   12  A    between atoms: C_32  and  O_33
REMARK                            x       y       z     vdW  Elec       q    Type
REMARK                         _______ _______ _______ _____ _____    ______ ____
ROOT
ATOM      1  C   UNL     1       7.956  -2.475  25.064  0.00  0.00    +0.000 A 
ATOM      2  C   UNL     1       6.685  -2.085  25.361  0.00  0.00    +0.000 A 
ATOM      3  O   UNL     1       5.554  -2.829  25.025  0.00  0.00    +0.000 OA
ATOM      4  C   UNL     1       5.676  -3.913  24.206  0.00  0.00    +0.000 A 
ATOM      5  C   UNL     1       6.900  -4.431  23.841  0.00  0.00    +0.000 A 
ATOM      6  C   UNL     1       6.977  -5.559  23.011  0.00  0.00    +0.000 A 
ATOM      7  C   UNL     1       5.812  -6.165  22.551  0.00  0.00    +0.000 A 
ATOM      8  C   UNL     1       4.582  -5.633  22.931  0.00  0.00    +0.000 A 
ATOM      9  C   UNL     1       4.496  -4.507  23.755  0.00  0.00    +0.000 A 
ATOM     10  C   UNL     1       8.098  -3.788  24.353  0.00  0.00    +0.000 A 
ATOM     11  O   UNL     1       9.161  -4.364  24.143  0.00  0.00    +0.000 OA
ENDROOT
BRANCH   2  12
ATOM     12  C   UNL     1       6.267  -0.821  26.056  0.00  0.00    +0.000 A 
ATOM     13  C   UNL     1       6.750  -0.413  27.313  0.00  0.00    +0.000 A 
ATOM     14  C   UNL     1       6.321   0.791  27.906  0.00  0.00    +0.000 A 
ATOM     15  C   UNL     1       5.403   1.595  27.242  0.00  0.00    +0.000 A 
ATOM     16  C   UNL     1       4.862   1.178  26.037  0.00  0.00    +0.000 A 
ATOM     17  C   UNL     1       5.277  -0.012  25.451  0.00  0.00    +0.000 A 
BRANCH  15  18
ATOM     18  O   UNL     1       5.024   2.818  27.719  0.00  0.00    +0.000 OA
ATOM     19  H   UNL     1       4.195   2.687  28.213  0.00  0.00    +0.000 HD
ENDBRANCH  15  18
BRANCH  16  20
ATOM     20  O   UNL     1       3.941   1.957  25.396  0.00  0.00    +0.000 OA
ATOM     21  H   UNL     1       3.932   1.628  24.475  0.00  0.00    +0.000 HD
ENDBRANCH  16  20
ENDBRANCH   2  12
BRANCH   8  22
ATOM     22  O   UNL     1       3.410  -6.197  22.518  0.00  0.00    +0.000 OA
ATOM     23  H   UNL     1       3.505  -7.165  22.529  0.00  0.00    +0.000 HD
ENDBRANCH   8  22
BRANCH   6  24
ATOM     24  O   UNL     1       8.163  -6.110  22.609  0.00  0.00    +0.000 OA
ATOM     25  H   UNL     1       8.214  -7.014  22.998  0.00  0.00    +0.000 HD
ENDBRANCH   6  24
BRANCH   1  26
ATOM     26  O   UNL     1       9.076  -1.725  25.386  0.00  0.00    +0.000 OA
BRANCH  26  29
ATOM     27  C   UNL     1       8.699   1.515  23.632  0.00  0.00    +0.000 C 
ATOM     28  O   UNL     1       8.498   0.407  24.527  0.00  0.00    +0.000 OA
ATOM     29  C   UNL     1       9.478  -0.642  24.492  0.00  0.00    +0.000 C 
ATOM     30  C   UNL     1       9.515  -1.246  23.076  0.00  0.00    +0.000 C 
ATOM     31  C   UNL     1       9.783  -0.165  22.031  0.00  0.00    +0.000 C 
ATOM     32  C   UNL     1       8.864   1.047  22.182  0.00  0.00    +0.000 C 
BRANCH  31  33
ATOM     33  O   UNL     1       9.578  -0.732  20.713  0.00  0.00    +0.000 OA
ATOM     34  H   UNL     1      10.448  -0.925  20.318  0.00  0.00    +0.000 HD
ENDBRANCH  31  33
BRANCH  32  35
ATOM     35  O   UNL     1       9.270   2.094  21.300  0.00  0.00    +0.000 OA
ATOM     36  H   UNL     1       9.671   1.663  20.519  0.00  0.00    +0.000 HD
ENDBRANCH  32  35
BRANCH  30  37
ATOM     37  O   UNL     1      10.521  -2.268  22.957  0.00  0.00    +0.000 OA
ATOM     38  H   UNL     1      10.210  -3.026  23.488  0.00  0.00    +0.000 HD
ENDBRANCH  30  37
BRANCH  27  39
ATOM     39  C   UNL     1       9.659   2.620  24.123  0.00  0.00    +0.000 C 
BRANCH  39  40
ATOM     40  O   UNL     1      10.995   2.489  23.656  0.00  0.00    +0.000 OA
ATOM     41  H   UNL     1      11.155   1.531  23.577  0.00  0.00    +0.000 HD
ENDBRANCH  39  40
ENDBRANCH  27  39
ENDBRANCH  26  29
ENDBRANCH   1  26
TORSDOF 12
ENDMDL
MODEL 4
REMARK VINA RESULT:      -6.8      2.191      7.394
REMARK  Name = 
REMARK  12 active torsions:
REMARK  status: ('A' for Active; 'I' for Inactive)
REMARK    1  A    between atoms: O_1  and  C_2
REMARK    2  A    between atoms: C_2  and  C_3
REMARK    3  A    between atoms: C_5  and  O_6
REMARK    4  A    between atoms: O_6  and  C_7
REMARK    5  A    between atoms: C_8  and  C_20
REMARK    6  A    between atoms: C_12  and  O_13
REMARK    7  A    between atoms: C_15  and  O_16
REMARK    8  A    between atoms: C_23  and  O_24
REMARK    9  A    between atoms: C_25  and  O_26
REMARK   10  A    between atoms: C_28  and  O_29
REMARK   11  A    between atoms: C_30  and  O_31
REMARK   12  A    between atoms: C_32  and  O_33
REMARK                            x       y       z     vdW  Elec       q    Type
REMARK                         _______ _______ _______ _____ _____    ______ ____
ROOT
ATOM      1  C   UNL     1       7.302  -1.405  25.993  0.00  0.00    +0.000 A 
ATOM      2  C   UNL     1       6.364  -2.165  25.362  0.00  0.00    +0.000 A 
ATOM      3  O   UNL     1       5.004  -2.121  25.671  0.00  0.00    +0.000 OA
ATOM      4  C   UNL     1       4.582  -1.430  26.769  0.00  0.00    +0.000 A 
ATOM      5  C   UNL     1       5.416  -0.605  27.491  0.00  0.00    +0.000 A 
ATOM      6  C   UNL     1       4.933   0.100  28.603  0.00  0.00    +0.000 A 
ATOM      7  C   UNL     1       3.601  -0.030  28.984  0.00  0.00    +0.000 A 
ATOM      8  C   UNL     1       2.768  -0.864  28.242  0.00  0.00    +0.000 A 
ATOM      9  C   UNL     1       3.242  -1.573  27.135  0.00  0.00    +0.000 A 
ATOM     10  C   UNL     1       6.797  -0.477  27.058  0.00  0.00    +0.000 A 
ATOM     11  O   UNL     1       7.469   0.384  27.620  0.00  0.00    +0.000 OA
ENDROOT
BRANCH   2  12
ATOM     12  C   UNL     1       6.600  -3.172  24.274  0.00  0.00    +0.000 A 
ATOM     13  C   UNL     1       7.415  -4.310  24.414  0.00  0.00    +0.000 A 
ATOM     14  C   UNL     1       7.588  -5.221  23.352  0.00  0.00    +0.000 A 
ATOM     15  C   UNL     1       6.944  -4.996  22.142  0.00  0.00    +0.000 A 
ATOM     16  C   UNL     1       6.195  -3.846  21.960  0.00  0.00    +0.000 A 
ATOM     17  C   UNL     1       6.027  -2.940  23.002  0.00  0.00    +0.000 A 
BRANCH  15  18
ATOM     18  O   UNL     1       6.994  -5.891  21.111  0.00  0.00    +0.000 OA
ATOM     19  H   UNL     1       7.521  -5.481  20.402  0.00  0.00    +0.000 HD
ENDBRANCH  15  18
BRANCH  16  20
ATOM     20  O   UNL     1       5.582  -3.612  20.762  0.00  0.00    +0.000 OA
ATOM     21  H   UNL     1       4.637  -3.808  20.921  0.00  0.00    +0.000 HD
ENDBRANCH  16  20
ENDBRANCH   2  12
BRANCH   8  22
ATOM     22  O   UNL     1       1.451  -1.015  28.566  0.00  0.00    +0.000 OA
ATOM     23  H   UNL     1       1.371  -1.096  29.532  0.00  0.00    +0.000 HD
ENDBRANCH   8  22
BRANCH   6  24
ATOM     24  O   UNL     1       5.718   0.925  29.362  0.00  0.00    +0.000 OA
ATOM     25  H   UNL     1       6.427   1.277  28.775  0.00  0.00    +0.000 HD
ENDBRANCH   6  24
BRANCH   1  26
ATOM     26  O   UNL     1       8.654  -1.462  25.694  0.00  0.00    +0.000 OA
BRANCH  26  29
ATOM     27  C   UNL     1       8.629   1.573  23.572  0.00  0.00    +0.000 C 
ATOM     28  O   UNL     1       8.274   0.577  24.547  0.00  0.00    +0.000 OA
ATOM     29  C   UNL     1       9.207  -0.497  24.748  0.00  0.00    +0.000 C 
ATOM     30  C   UNL     1       9.391  -1.255  23.420  0.00  0.00    +0.000 C 
ATOM     31  C   UNL     1       9.829  -0.304  22.308  0.00  0.00    +0.000 C 
ATOM     32  C   UNL     1       8.950   0.942  22.212  0.00  0.00    +0.000 C 
BRANCH  31  33
ATOM     33  O   UNL     1       9.764  -1.008  21.043  0.00  0.00    +0.000 OA
ATOM     34  H   UNL     1       9.743  -0.352  20.322  0.00  0.00    +0.000 HD
ENDBRANCH  31  33
BRANCH  32  35
ATOM     35  O   UNL     1       9.504   1.873  21.282  0.00  0.00    +0.000 OA
ATOM     36  H   UNL     1       9.262   1.556  20.389  0.00  0.00    +0.000 HD
ENDBRANCH  32  35
BRANCH  30  37
ATOM     37  O   UNL     1      10.360  -2.311  23.538  0.00  0.00    +0.000 OA
ATOM     38  H   UNL     1      10.823  -2.360  22.679  0.00  0.00    +0.000 HD
ENDBRANCH  30  37
BRANCH  27  39
ATOM     39  C   UNL     1       9.568   2.698  24.060  0.00  0.00    +0.000 C 
BRANCH  39  40
ATOM     40  O   UNL     1      10.928   2.536  23.680  0.00  0.00    +0.000 OA
ATOM     41  H   UNL     1      10.910   2.272  22.741  0.00  0.00    +0.000 HD
ENDBRANCH  39  40
ENDBRANCH  27  39
ENDBRANCH  26  29
ENDBRANCH   1  26
TORSDOF 12
ENDMDL
MODEL 5
REMARK VINA RESULT:      -6.7      2.367      4.258
REMARK  Name = 
REMARK  12 active torsions:
REMARK  status: ('A' for Active; 'I' for Inactive)
REMARK    1  A    between atoms: O_1  and  C_2
REMARK    2  A    between atoms: C_2  and  C_3
REMARK    3  A    between atoms: C_5  and  O_6
REMARK    4  A    between atoms: O_6  and  C_7
REMARK    5  A    between atoms: C_8  and  C_20
REMARK    6  A    between atoms: C_12  and  O_13
REMARK    7  A    between atoms: C_15  and  O_16
REMARK    8  A    between atoms: C_23  and  O_24
REMARK    9  A    between atoms: C_25  and  O_26
REMARK   10  A    between atoms: C_28  and  O_29
REMARK   11  A    between atoms: C_30  and  O_31
REMARK   12  A    between atoms: C_32  and  O_33
REMARK                            x       y       z     vdW  Elec       q    Type
REMARK                         _______ _______ _______ _____ _____    ______ ____
ROOT
ATOM      1  C   UNL     1       7.884  -2.141  24.738  0.00  0.00    +0.000 A 
ATOM      2  C   UNL     1       6.983  -2.246  23.722  0.00  0.00    +0.000 A 
ATOM      3  O   UNL     1       6.691  -1.204  22.842  0.00  0.00    +0.000 OA
ATOM      4  C   UNL     1       7.178   0.046  23.088  0.00  0.00    +0.000 A 
ATOM      5  C   UNL     1       8.112   0.297  24.069  0.00  0.00    +0.000 A 
ATOM      6  C   UNL     1       8.600   1.595  24.274  0.00  0.00    +0.000 A 
ATOM      7  C   UNL     1       8.140   2.643  23.483  0.00  0.00    +0.000 A 
ATOM      8  C   UNL     1       7.199   2.375  22.492  0.00  0.00    +0.000 A 
ATOM      9  C   UNL     1       6.705   1.084  22.283  0.00  0.00    +0.000 A 
ATOM     10  C   UNL     1       8.586  -0.822  24.867  0.00  0.00    +0.000 A 
ATOM     11  O   UNL     1       9.530  -0.596  25.620  0.00  0.00    +0.000 OA
ENDROOT
BRANCH   2  12
ATOM     12  C   UNL     1       6.145  -3.444  23.379  0.00  0.00    +0.000 A 
ATOM     13  C   UNL     1       6.615  -4.559  22.662  0.00  0.00    +0.000 A 
ATOM     14  C   UNL     1       5.775  -5.655  22.381  0.00  0.00    +0.000 A 
ATOM     15  C   UNL     1       4.456  -5.640  22.816  0.00  0.00    +0.000 A 
ATOM     16  C   UNL     1       3.953  -4.522  23.461  0.00  0.00    +0.000 A 
ATOM     17  C   UNL     1       4.776  -3.436  23.735  0.00  0.00    +0.000 A 
BRANCH  15  18
ATOM     18  O   UNL     1       3.623  -6.711  22.659  0.00  0.00    +0.000 OA
ATOM     19  H   UNL     1       3.291  -6.684  21.744  0.00  0.00    +0.000 HD
ENDBRANCH  15  18
BRANCH  16  20
ATOM     20  O   UNL     1       2.649  -4.497  23.867  0.00  0.00    +0.000 OA
ATOM     21  H   UNL     1       2.338  -5.420  23.769  0.00  0.00    +0.000 HD
ENDBRANCH  16  20
ENDBRANCH   2  12
BRANCH   8  22
ATOM     22  O   UNL     1       6.726   3.365  21.680  0.00  0.00    +0.000 OA
ATOM     23  H   UNL     1       6.432   2.970  20.841  0.00  0.00    +0.000 HD
ENDBRANCH   8  22
BRANCH   6  24
ATOM     24  O   UNL     1       9.519   1.904  25.239  0.00  0.00    +0.000 OA
ATOM     25  H   UNL     1      10.115   1.125  25.337  0.00  0.00    +0.000 HD
ENDBRANCH   6  24
BRANCH   1  26
ATOM     26  O   UNL     1       8.160  -3.174  25.620  0.00  0.00    +0.000 OA
BRANCH  26  29
ATOM     27  C   UNL     1       5.245  -3.634  27.856  0.00  0.00    +0.000 C 
ATOM     28  O   UNL     1       6.324  -3.042  27.112  0.00  0.00    +0.000 OA
ATOM     29  C   UNL     1       7.047  -3.904  26.219  0.00  0.00    +0.000 C 
ATOM     30  C   UNL     1       7.675  -5.053  27.031  0.00  0.00    +0.000 C 
ATOM     31  C   UNL     1       6.608  -5.802  27.826  0.00  0.00    +0.000 C 
ATOM     32  C   UNL     1       5.707  -4.869  28.636  0.00  0.00    +0.000 C 
BRANCH  31  33
ATOM     33  O   UNL     1       7.267  -6.711  28.744  0.00  0.00    +0.000 OA
ATOM     34  H   UNL     1       8.149  -6.926  28.390  0.00  0.00    +0.000 HD
ENDBRANCH  31  33
BRANCH  32  35
ATOM     35  O   UNL     1       4.626  -5.601  29.216  0.00  0.00    +0.000 OA
ATOM     36  H   UNL     1       4.909  -5.851  30.118  0.00  0.00    +0.000 HD
ENDBRANCH  32  35
BRANCH  30  37
ATOM     37  O   UNL     1       8.368  -5.987  26.186  0.00  0.00    +0.000 OA
ATOM     38  H   UNL     1       8.419  -6.826  26.684  0.00  0.00    +0.000 HD
ENDBRANCH  30  37
BRANCH  27  39
ATOM     39  C   UNL     1       3.890  -3.738  27.122  0.00  0.00    +0.000 C 
BRANCH  39  40
ATOM     40  O   UNL     1       3.521  -5.060  26.751  0.00  0.00    +0.000 OA
ATOM     41  H   UNL     1       2.666  -4.976  26.290  0.00  0.00    +0.000 HD
ENDBRANCH  39  40
ENDBRANCH  27  39
ENDBRANCH  26  29
ENDBRANCH   1  26
TORSDOF 12
ENDMDL
MODEL 6
REMARK VINA RESULT:      -6.7      4.351      8.070
REMARK  Name = 
REMARK  12 active torsions:
REMARK  status: ('A' for Active; 'I' for Inactive)
REMARK    1  A    between atoms: O_1  and  C_2
REMARK    2  A    between atoms: C_2  and  C_3
REMARK    3  A    between atoms: C_5  and  O_6
REMARK    4  A    between atoms: O_6  and  C_7
REMARK    5  A    between atoms: C_8  and  C_20
REMARK    6  A    between atoms: C_12  and  O_13
REMARK    7  A    between atoms: C_15  and  O_16
REMARK    8  A    between atoms: C_23  and  O_24
REMARK    9  A    between atoms: C_25  and  O_26
REMARK   10  A    between atoms: C_28  and  O_29
REMARK   11  A    between atoms: C_30  and  O_31
REMARK   12  A    between atoms: C_32  and  O_33
REMARK                            x       y       z     vdW  Elec       q    Type
REMARK                         _______ _______ _______ _____ _____    ______ ____
ROOT
ATOM      1  C   UNL     1       7.089   3.609  24.912  0.00  0.00    +0.000 A 
ATOM      2  C   UNL     1       7.501   4.838  24.496  0.00  0.00    +0.000 A 
ATOM      3  O   UNL     1       6.667   5.752  23.851  0.00  0.00    +0.000 OA
ATOM      4  C   UNL     1       5.426   5.362  23.440  0.00  0.00    +0.000 A 
ATOM      5  C   UNL     1       4.872   4.154  23.803  0.00  0.00    +0.000 A 
ATOM      6  C   UNL     1       3.584   3.803  23.373  0.00  0.00    +0.000 A 
ATOM      7  C   UNL     1       2.855   4.678  22.574  0.00  0.00    +0.000 A 
ATOM      8  C   UNL     1       3.426   5.897  22.218  0.00  0.00    +0.000 A 
ATOM      9  C   UNL     1       4.711   6.253  22.639  0.00  0.00    +0.000 A 
ATOM     10  C   UNL     1       5.651   3.269  24.653  0.00  0.00    +0.000 A 
ATOM     11  O   UNL     1       5.071   2.278  25.089  0.00  0.00    +0.000 OA
ENDROOT
BRANCH   2  12
ATOM     12  C   UNL     1       8.880   5.419  24.624  0.00  0.00    +0.000 A 
ATOM     13  C   UNL     1       9.262   6.337  25.620  0.00  0.00    +0.000 A 
ATOM     14  C   UNL     1      10.578   6.837  25.687  0.00  0.00    +0.000 A 
ATOM     15  C   UNL     1      11.520   6.422  24.754  0.00  0.00    +0.000 A 
ATOM     16  C   UNL     1      11.147   5.576  23.724  0.00  0.00    +0.000 A 
ATOM     17  C   UNL     1       9.848   5.084  23.649  0.00  0.00    +0.000 A 
BRANCH  15  18
ATOM     18  O   UNL     1      12.832   6.796  24.825  0.00  0.00    +0.000 OA
ATOM     19  H   UNL     1      13.267   6.466  24.019  0.00  0.00    +0.000 HD
ENDBRANCH  15  18
BRANCH  16  20
ATOM     20  O   UNL     1      12.067   5.187  22.792  0.00  0.00    +0.000 OA
ATOM     21  H   UNL     1      12.788   4.773  23.309  0.00  0.00    +0.000 HD
ENDBRANCH  16  20
ENDBRANCH   2  12
BRANCH   8  22
ATOM     22  O   UNL     1       2.748   6.797  21.447  0.00  0.00    +0.000 OA
ATOM     23  H   UNL     1       2.073   6.323  20.931  0.00  0.00    +0.000 HD
ENDBRANCH   8  22
BRANCH   6  24
ATOM     24  O   UNL     1       2.988   2.614  23.694  0.00  0.00    +0.000 OA
ATOM     25  H   UNL     1       2.884   2.592  24.674  0.00  0.00    +0.000 HD
ENDBRANCH   6  24
BRANCH   1  26
ATOM     26  O   UNL     1       7.924   2.698  25.539  0.00  0.00    +0.000 OA
BRANCH  26  29
ATOM     27  C   UNL     1       8.504   0.682  22.487  0.00  0.00    +0.000 C 
ATOM     28  O   UNL     1       8.062   1.713  23.388  0.00  0.00    +0.000 OA
ATOM     29  C   UNL     1       8.539   1.641  24.741  0.00  0.00    +0.000 C 
ATOM     30  C   UNL     1       8.078   0.310  25.365  0.00  0.00    +0.000 C 
ATOM     31  C   UNL     1       8.543  -0.875  24.521  0.00  0.00    +0.000 C 
ATOM     32  C   UNL     1       8.205  -0.716  23.039  0.00  0.00    +0.000 C 
BRANCH  31  33
ATOM     33  O   UNL     1       7.895  -2.075  25.011  0.00  0.00    +0.000 OA
ATOM     34  H   UNL     1       7.696  -1.958  25.958  0.00  0.00    +0.000 HD
ENDBRANCH  31  33
BRANCH  32  35
ATOM     35  O   UNL     1       8.812  -1.759  22.275  0.00  0.00    +0.000 OA
ATOM     36  H   UNL     1       9.772  -1.576  22.263  0.00  0.00    +0.000 HD
ENDBRANCH  32  35
BRANCH  30  37
ATOM     37  O   UNL     1       8.573   0.149  26.706  0.00  0.00    +0.000 OA
ATOM     38  H   UNL     1       9.541   0.268  26.660  0.00  0.00    +0.000 HD
ENDBRANCH  30  37
BRANCH  27  39
ATOM     39  C   UNL     1       9.889   0.896  21.837  0.00  0.00    +0.000 C 
BRANCH  39  40
ATOM     40  O   UNL     1      10.205   2.253  21.557  0.00  0.00    +0.000 OA
ATOM     41  H   UNL     1      10.846   2.521  22.241  0.00  0.00    +0.000 HD
ENDBRANCH  39  40
ENDBRANCH  27  39
ENDBRANCH  26  29
ENDBRANCH   1  26
TORSDOF 12
ENDMDL
MODEL 7
REMARK VINA RESULT:      -6.6      2.051      7.037
REMARK  Name = 
REMARK  12 active torsions:
REMARK  status: ('A' for Active; 'I' for Inactive)
REMARK    1  A    between atoms: O_1  and  C_2
REMARK    2  A    between atoms: C_2  and  C_3
REMARK    3  A    between atoms: C_5  and  O_6
REMARK    4  A    between atoms: O_6  and  C_7
REMARK    5  A    between atoms: C_8  and  C_20
REMARK    6  A    between atoms: C_12  and  O_13
REMARK    7  A    between atoms: C_15  and  O_16
REMARK    8  A    between atoms: C_23  and  O_24
REMARK    9  A    between atoms: C_25  and  O_26
REMARK   10  A    between atoms: C_28  and  O_29
REMARK   11  A    between atoms: C_30  and  O_31
REMARK   12  A    between atoms: C_32  and  O_33
REMARK                            x       y       z     vdW  Elec       q    Type
REMARK                         _______ _______ _______ _____ _____    ______ ____
ROOT
ATOM      1  C   UNL     1       7.343  -2.022  25.282  0.00  0.00    +0.000 A 
ATOM      2  C   UNL     1       7.756  -1.545  24.075  0.00  0.00    +0.000 A 
ATOM      3  O   UNL     1       7.448  -2.158  22.859  0.00  0.00    +0.000 OA
ATOM      4  C   UNL     1       6.861  -3.389  22.852  0.00  0.00    +0.000 A 
ATOM      5  C   UNL     1       6.375  -3.985  23.996  0.00  0.00    +0.000 A 
ATOM      6  C   UNL     1       5.762  -5.244  23.938  0.00  0.00    +0.000 A 
ATOM      7  C   UNL     1       5.638  -5.902  22.719  0.00  0.00    +0.000 A 
ATOM      8  C   UNL     1       6.130  -5.287  21.570  0.00  0.00    +0.000 A 
ATOM      9  C   UNL     1       6.746  -4.033  21.619  0.00  0.00    +0.000 A 
ATOM     10  C   UNL     1       6.503  -3.264  25.252  0.00  0.00    +0.000 A 
ATOM     11  O   UNL     1       5.921  -3.745  26.220  0.00  0.00    +0.000 OA
ENDROOT
BRANCH   2  12
ATOM     12  C   UNL     1       8.606  -0.333  23.825  0.00  0.00    +0.000 A 
ATOM     13  C   UNL     1       9.745   0.003  24.581  0.00  0.00    +0.000 A 
ATOM     14  C   UNL     1      10.503   1.154  24.287  0.00  0.00    +0.000 A 
ATOM     15  C   UNL     1      10.125   1.977  23.235  0.00  0.00    +0.000 A 
ATOM     16  C   UNL     1       8.967   1.704  22.524  0.00  0.00    +0.000 A 
ATOM     17  C   UNL     1       8.212   0.574  22.814  0.00  0.00    +0.000 A 
BRANCH  15  18
ATOM     18  O   UNL     1      10.873   3.051  22.841  0.00  0.00    +0.000 OA
ATOM     19  H   UNL     1      10.281   3.824  22.833  0.00  0.00    +0.000 HD
ENDBRANCH  15  18
BRANCH  16  20
ATOM     20  O   UNL     1       8.581   2.527  21.505  0.00  0.00    +0.000 OA
ATOM     21  H   UNL     1       9.385   2.644  20.959  0.00  0.00    +0.000 HD
ENDBRANCH  16  20
ENDBRANCH   2  12
BRANCH   8  22
ATOM     22  O   UNL     1       6.022  -5.884  20.348  0.00  0.00    +0.000 OA
ATOM     23  H   UNL     1       5.113  -5.771  20.021  0.00  0.00    +0.000 HD
ENDBRANCH   8  22
BRANCH   6  24
ATOM     24  O   UNL     1       5.271  -5.886  25.042  0.00  0.00    +0.000 OA
ATOM     25  H   UNL     1       5.204  -6.844  24.819  0.00  0.00    +0.000 HD
ENDBRANCH   6  24
BRANCH   1  26
ATOM     26  O   UNL     1       7.663  -1.419  26.488  0.00  0.00    +0.000 OA
BRANCH  26  29
ATOM     27  C   UNL     1       4.825   0.961  26.493  0.00  0.00    +0.000 C 
ATOM     28  O   UNL     1       5.782  -0.033  26.087  0.00  0.00    +0.000 OA
ATOM     29  C   UNL     1       6.708  -0.490  27.086  0.00  0.00    +0.000 C 
ATOM     30  C   UNL     1       7.534   0.709  27.590  0.00  0.00    +0.000 C 
ATOM     31  C   UNL     1       6.620   1.818  28.107  0.00  0.00    +0.000 C 
ATOM     32  C   UNL     1       5.510   2.180  27.122  0.00  0.00    +0.000 C 
BRANCH  31  33
ATOM     33  O   UNL     1       7.420   3.002  28.349  0.00  0.00    +0.000 OA
ATOM     34  H   UNL     1       6.822   3.749  28.539  0.00  0.00    +0.000 HD
ENDBRANCH  31  33
BRANCH  32  35
ATOM     35  O   UNL     1       4.587   3.090  27.723  0.00  0.00    +0.000 OA
ATOM     36  H   UNL     1       4.568   2.880  28.678  0.00  0.00    +0.000 HD
ENDBRANCH  32  35
BRANCH  30  37
ATOM     37  O   UNL     1       8.443   0.328  28.637  0.00  0.00    +0.000 OA
ATOM     38  H   UNL     1       7.929   0.336  29.467  0.00  0.00    +0.000 HD
ENDBRANCH  30  37
BRANCH  27  39
ATOM     39  C   UNL     1       3.554   0.434  27.195  0.00  0.00    +0.000 C 
BRANCH  39  40
ATOM     40  O   UNL     1       2.349   1.064  26.782  0.00  0.00    +0.000 OA
ATOM     41  H   UNL     1       2.539   2.021  26.779  0.00  0.00    +0.000 HD
ENDBRANCH  39  40
ENDBRANCH  27  39
ENDBRANCH  26  29
ENDBRANCH   1  26
TORSDOF 12
ENDMDL
MODEL 8
REMARK VINA RESULT:      -6.6      4.273      8.405
REMARK  Name = 
REMARK  12 active torsions:
REMARK  status: ('A' for Active; 'I' for Inactive)
REMARK    1  A    between atoms: O_1  and  C_2
REMARK    2  A    between atoms: C_2  and  C_3
REMARK    3  A    between atoms: C_5  and  O_6
REMARK    4  A    between atoms: O_6  and  C_7
REMARK    5  A    between atoms: C_8  and  C_20
REMARK    6  A    between atoms: C_12  and  O_13
REMARK    7  A    between atoms: C_15  and  O_16
REMARK    8  A    between atoms: C_23  and  O_24
REMARK    9  A    between atoms: C_25  and  O_26
REMARK   10  A    between atoms: C_28  and  O_29
REMARK   11  A    between atoms: C_30  and  O_31
REMARK   12  A    between atoms: C_32  and  O_33
REMARK                            x       y       z     vdW  Elec       q    Type
REMARK                         _______ _______ _______ _____ _____    ______ ____
ROOT
ATOM      1  C   UNL     1       8.217   3.198  24.353  0.00  0.00    +0.000 A 
ATOM      2  C   UNL     1       9.036   2.212  23.890  0.00  0.00    +0.000 A 
ATOM      3  O   UNL     1      10.401   2.388  23.666  0.00  0.00    +0.000 OA
ATOM      4  C   UNL     1      10.942   3.639  23.732  0.00  0.00    +0.000 A 
ATOM      5  C   UNL     1      10.237   4.727  24.201  0.00  0.00    +0.000 A 
ATOM      6  C   UNL     1      10.840   5.991  24.269  0.00  0.00    +0.000 A 
ATOM      7  C   UNL     1      12.160   6.155  23.861  0.00  0.00    +0.000 A 
ATOM      8  C   UNL     1      12.861   5.046  23.393  0.00  0.00    +0.000 A 
ATOM      9  C   UNL     1      12.267   3.783  23.318  0.00  0.00    +0.000 A 
ATOM     10  C   UNL     1       8.866   4.520  24.637  0.00  0.00    +0.000 A 
ATOM     11  O   UNL     1       8.321   5.467  25.197  0.00  0.00    +0.000 OA
ENDROOT
BRANCH   2  12
ATOM     12  C   UNL     1       8.643   0.810  23.523  0.00  0.00    +0.000 A 
ATOM     13  C   UNL     1       7.545   0.126  24.078  0.00  0.00    +0.000 A 
ATOM     14  C   UNL     1       7.228  -1.189  23.682  0.00  0.00    +0.000 A 
ATOM     15  C   UNL     1       8.009  -1.827  22.728  0.00  0.00    +0.000 A 
ATOM     16  C   UNL     1       9.135  -1.199  22.222  0.00  0.00    +0.000 A 
ATOM     17  C   UNL     1       9.457   0.096  22.614  0.00  0.00    +0.000 A 
BRANCH  15  18
ATOM     18  O   UNL     1       7.695  -3.062  22.233  0.00  0.00    +0.000 OA
ATOM     19  H   UNL     1       6.725  -3.143  22.261  0.00  0.00    +0.000 HD
ENDBRANCH  15  18
BRANCH  16  20
ATOM     20  O   UNL     1       9.918  -1.836  21.302  0.00  0.00    +0.000 OA
ATOM     21  H   UNL     1       9.994  -2.755  21.631  0.00  0.00    +0.000 HD
ENDBRANCH  16  20
ENDBRANCH   2  12
BRANCH   8  22
ATOM     22  O   UNL     1      14.162   5.151  22.993  0.00  0.00    +0.000 OA
ATOM     23  H   UNL     1      14.185   5.491  22.082  0.00  0.00    +0.000 HD
ENDBRANCH   8  22
BRANCH   6  24
ATOM     24  O   UNL     1      10.186   7.106  24.716  0.00  0.00    +0.000 OA
ATOM     25  H   UNL     1       9.263   7.063  24.372  0.00  0.00    +0.000 HD
ENDBRANCH   6  24
BRANCH   1  26
ATOM     26  O   UNL     1       6.858   3.023  24.560  0.00  0.00    +0.000 OA
BRANCH  26  29
ATOM     27  C   UNL     1       4.160   5.510  24.063  0.00  0.00    +0.000 C 
ATOM     28  O   UNL     1       5.193   4.707  24.659  0.00  0.00    +0.000 OA
ATOM     29  C   UNL     1       5.919   3.828  23.784  0.00  0.00    +0.000 C 
ATOM     30  C   UNL     1       4.932   2.835  23.141  0.00  0.00    +0.000 C 
ATOM     31  C   UNL     1       3.809   3.577  22.420  0.00  0.00    +0.000 C 
ATOM     32  C   UNL     1       3.155   4.652  23.287  0.00  0.00    +0.000 C 
BRANCH  31  33
ATOM     33  O   UNL     1       2.792   2.618  22.036  0.00  0.00    +0.000 OA
ATOM     34  H   UNL     1       3.229   1.784  21.784  0.00  0.00    +0.000 HD
ENDBRANCH  31  33
BRANCH  32  35
ATOM     35  O   UNL     1       2.238   5.427  22.513  0.00  0.00    +0.000 OA
ATOM     36  H   UNL     1       1.348   5.061  22.683  0.00  0.00    +0.000 HD
ENDBRANCH  32  35
BRANCH  30  37
ATOM     37  O   UNL     1       5.588   1.960  22.207  0.00  0.00    +0.000 OA
ATOM     38  H   UNL     1       5.501   1.056  22.565  0.00  0.00    +0.000 HD
ENDBRANCH  30  37
BRANCH  27  39
ATOM     39  C   UNL     1       4.621   6.823  23.393  0.00  0.00    +0.000 C 
BRANCH  39  40
ATOM     40  O   UNL     1       4.853   6.721  21.994  0.00  0.00    +0.000 OA
ATOM     41  H   UNL     1       3.973   6.618  21.587  0.00  0.00    +0.000 HD
ENDBRANCH  39  40
ENDBRANCH  27  39
ENDBRANCH  26  29
ENDBRANCH   1  26
TORSDOF 12
ENDMDL
MODEL 9
REMARK VINA RESULT:      -6.6      3.382      7.253
REMARK  Name = 
REMARK  12 active torsions:
REMARK  status: ('A' for Active; 'I' for Inactive)
REMARK    1  A    between atoms: O_1  and  C_2
REMARK    2  A    between atoms: C_2  and  C_3
REMARK    3  A    between atoms: C_5  and  O_6
REMARK    4  A    between atoms: O_6  and  C_7
REMARK    5  A    between atoms: C_8  and  C_20
REMARK    6  A    between atoms: C_12  and  O_13
REMARK    7  A    between atoms: C_15  and  O_16
REMARK    8  A    between atoms: C_23  and  O_24
REMARK    9  A    between atoms: C_25  and  O_26
REMARK   10  A    between atoms: C_28  and  O_29
REMARK   11  A    between atoms: C_30  and  O_31
REMARK   12  A    between atoms: C_32  and  O_33
REMARK                            x       y       z     vdW  Elec       q    Type
REMARK                         _______ _______ _______ _____ _____    ______ ____
ROOT
ATOM      1  C   UNL     1       8.246   2.617  24.037  0.00  0.00    +0.000 A 
ATOM      2  C   UNL     1       9.237   1.704  23.840  0.00  0.00    +0.000 A 
ATOM      3  O   UNL     1      10.588   2.041  23.751  0.00  0.00    +0.000 OA
ATOM      4  C   UNL     1      10.953   3.353  23.673  0.00  0.00    +0.000 A 
ATOM      5  C   UNL     1      10.060   4.384  23.872  0.00  0.00    +0.000 A 
ATOM      6  C   UNL     1      10.484   5.718  23.801  0.00  0.00    +0.000 A 
ATOM      7  C   UNL     1      11.817   6.011  23.528  0.00  0.00    +0.000 A 
ATOM      8  C   UNL     1      12.709   4.960  23.333  0.00  0.00    +0.000 A 
ATOM      9  C   UNL     1      12.294   3.626  23.398  0.00  0.00    +0.000 A 
ATOM     10  C   UNL     1       8.679   4.047  24.173  0.00  0.00    +0.000 A 
ATOM     11  O   UNL     1       7.947   4.976  24.502  0.00  0.00    +0.000 OA
ENDROOT
BRANCH   2  12
ATOM     12  C   UNL     1       9.077   0.221  23.666  0.00  0.00    +0.000 A 
ATOM     13  C   UNL     1       9.016  -0.426  22.418  0.00  0.00    +0.000 A 
ATOM     14  C   UNL     1       8.872  -1.825  22.326  0.00  0.00    +0.000 A 
ATOM     15  C   UNL     1       8.788  -2.585  23.485  0.00  0.00    +0.000 A 
ATOM     16  C   UNL     1       8.775  -1.962  24.722  0.00  0.00    +0.000 A 
ATOM     17  C   UNL     1       8.909  -0.582  24.818  0.00  0.00    +0.000 A 
BRANCH  15  18
ATOM     18  O   UNL     1       8.746  -3.951  23.462  0.00  0.00    +0.000 OA
ATOM     19  H   UNL     1       9.358  -4.244  22.764  0.00  0.00    +0.000 HD
ENDBRANCH  15  18
BRANCH  16  20
ATOM     20  O   UNL     1       8.667  -2.708  25.862  0.00  0.00    +0.000 OA
ATOM     21  H   UNL     1       9.109  -3.555  25.650  0.00  0.00    +0.000 HD
ENDBRANCH  16  20
ENDBRANCH   2  12
BRANCH   8  22
ATOM     22  O   UNL     1      14.029   5.192  23.076  0.00  0.00    +0.000 OA
ATOM     23  H   UNL     1      14.327   4.581  22.379  0.00  0.00    +0.000 HD
ENDBRANCH   8  22
BRANCH   6  24
ATOM     24  O   UNL     1       9.641   6.780  23.979  0.00  0.00    +0.000 OA
ATOM     25  H   UNL     1       8.749   6.415  24.188  0.00  0.00    +0.000 HD
ENDBRANCH   6  24
BRANCH   1  26
ATOM     26  O   UNL     1       6.904   2.279  24.110  0.00  0.00    +0.000 OA
BRANCH  26  29
ATOM     27  C   UNL     1       6.531   1.607  27.733  0.00  0.00    +0.000 C 
ATOM     28  O   UNL     1       7.079   1.726  26.408  0.00  0.00    +0.000 OA
ATOM     29  C   UNL     1       6.237   2.322  25.409  0.00  0.00    +0.000 C 
ATOM     30  C   UNL     1       4.958   1.476  25.261  0.00  0.00    +0.000 C 
ATOM     31  C   UNL     1       4.249   1.327  26.606  0.00  0.00    +0.000 C 
ATOM     32  C   UNL     1       5.186   0.873  27.724  0.00  0.00    +0.000 C 
BRANCH  31  33
ATOM     33  O   UNL     1       3.194   0.342  26.467  0.00  0.00    +0.000 OA
ATOM     34  H   UNL     1       3.411  -0.244  25.719  0.00  0.00    +0.000 HD
ENDBRANCH  31  33
BRANCH  32  35
ATOM     35  O   UNL     1       4.517   0.919  28.985  0.00  0.00    +0.000 OA
ATOM     36  H   UNL     1       4.739   0.089  29.451  0.00  0.00    +0.000 HD
ENDBRANCH  32  35
BRANCH  30  37
ATOM     37  O   UNL     1       4.042   2.052  24.314  0.00  0.00    +0.000 OA
ATOM     38  H   UNL     1       4.275   1.680  23.442  0.00  0.00    +0.000 HD
ENDBRANCH  30  37
BRANCH  27  39
ATOM     39  C   UNL     1       6.637   2.862  28.627  0.00  0.00    +0.000 C 
BRANCH  39  40
ATOM     40  O   UNL     1       7.795   2.903  29.451  0.00  0.00    +0.000 OA
ATOM     41  H   UNL     1       7.685   2.180  30.096  0.00  0.00    +0.000 HD
ENDBRANCH  39  40
ENDBRANCH  27  39
ENDBRANCH  26  29
ENDBRANCH   1  26
TORSDOF 12
ENDMDL
