MODEL 1
REMARK VINA RESULT:      -7.3      0.000      0.000
REMARK  Name = 
REMARK  27 active torsions:
REMARK  status: ('A' for Active; 'I' for Inactive)
REMARK    1  A    between atoms: C_1  and  C_2
REMARK    2  A    between atoms: C_4  and  O_5
REMARK    3  A    between atoms: O_5  and  C_6
REMARK    4  A    between atoms: C_7  and  O_8
REMARK    5  A    between atoms: C_9  and  O_10
REMARK    6  A    between atoms: O_10  and  C_11
REMARK    7  A    between atoms: C_11  and  C_12
REMARK    8  A    between atoms: C_12  and  C_13
REMARK    9  A    between atoms: C_15  and  O_16
REMARK   10  A    between atoms: C_17  and  O_18
REMARK   11  A    between atoms: C_22  and  C_23
REMARK   12  A    between atoms: C_23  and  O_24
REMARK   13  A    between atoms: O_24  and  C_25
REMARK   14  A    between atoms: C_27  and  C_28
REMARK   15  A    between atoms: C_28  and  O_29
REMARK   16  A    between atoms: C_30  and  O_31
REMARK   17  A    between atoms: C_32  and  O_33
REMARK   18  A    between atoms: C_34  and  O_35
REMARK   19  A    between atoms: C_36  and  O_37
REMARK   20  A    between atoms: O_37  and  C_38
REMARK   21  A    between atoms: C_38  and  C_40
REMARK   22  A    between atoms: C_41  and  C_42
REMARK   23  A    between atoms: C_44  and  O_45
REMARK   24  A    between atoms: C_46  and  O_47
REMARK   25  A    between atoms: C_50  and  O_51
REMARK   26  A    between atoms: C_52  and  O_53
REMARK   27  A    between atoms: C_54  and  O_55
REMARK                            x       y       z     vdW  Elec       q    Type
REMARK                         _______ _______ _______ _____ _____    ______ ____
ROOT
ATOM      1  C   UNL     1       8.353  -2.031  25.379  0.00  0.00    +0.000 C 
ATOM      2  C   UNL     1       8.508  -3.397  24.656  0.00  0.00    +0.000 C 
ATOM      3  C   UNL     1       7.674  -4.553  25.267  0.00  0.00    +0.000 C 
ATOM      4  O   UNL     1       6.357  -4.099  25.498  0.00  0.00    +0.000 OA
ATOM      5  C   UNL     1       6.316  -3.072  26.489  0.00  0.00    +0.000 C 
ATOM      6  C   UNL     1       6.928  -1.785  25.913  0.00  0.00    +0.000 C 
ENDROOT
BRANCH   2   7
ATOM      7  O   UNL     1       9.902  -3.763  24.619  0.00  0.00    +0.000 OA
ATOM      8  H   UNL     1      10.389  -3.193  25.238  0.00  0.00    +0.000 HD
ENDBRANCH   2   7
BRANCH   6   9
ATOM      9  O   UNL     1       6.876  -0.653  26.828  0.00  0.00    +0.000 OA
BRANCH   9  10
ATOM     10  C   UNL     1       6.035   0.373  26.550  0.00  0.00    +0.000 C 
ATOM     11  O   UNL     1       4.876   0.463  26.922  0.00  0.00    +0.000 OA
BRANCH  10  12
ATOM     12  C   UNL     1       6.685   1.427  25.743  0.00  0.00    +0.000 C 
ATOM     13  C   UNL     1       6.747   2.719  26.095  0.00  0.00    +0.000 C 
BRANCH  13  14
ATOM     14  C   UNL     1       7.353   3.723  25.214  0.00  0.00    +0.000 A 
ATOM     15  C   UNL     1       7.059   3.747  23.844  0.00  0.00    +0.000 A 
ATOM     16  C   UNL     1       7.663   4.705  23.036  0.00  0.00    +0.000 A 
ATOM     17  C   UNL     1       8.552   5.630  23.578  0.00  0.00    +0.000 A 
ATOM     18  C   UNL     1       8.848   5.617  24.929  0.00  0.00    +0.000 A 
ATOM     19  C   UNL     1       8.249   4.657  25.751  0.00  0.00    +0.000 A 
BRANCH  17  20
ATOM     20  O   UNL     1       9.144   6.564  22.774  0.00  0.00    +0.000 OA
ATOM     21  H   UNL     1      10.033   6.689  23.161  0.00  0.00    +0.000 HD
ENDBRANCH  17  20
BRANCH  16  22
ATOM     22  O   UNL     1       7.413   4.783  21.693  0.00  0.00    +0.000 OA
ATOM     23  H   UNL     1       7.736   3.965  21.275  0.00  0.00    +0.000 HD
ENDBRANCH  16  22
ENDBRANCH  13  14
ENDBRANCH  10  12
ENDBRANCH   9  10
ENDBRANCH   6   9
BRANCH   1  24
ATOM     24  O   UNL     1       8.879  -0.861  24.684  0.00  0.00    +0.000 OA
BRANCH  24  28
ATOM     25  C   UNL     1      10.779   2.650  23.743  0.00  0.00    +0.000 C 
ATOM     26  C   UNL     1      10.063   1.349  23.419  0.00  0.00    +0.000 C 
ATOM     27  O   UNL     1      10.847   0.274  23.971  0.00  0.00    +0.000 OA
ATOM     28  C   UNL     1      10.121  -0.956  23.984  0.00  0.00    +0.000 C 
ATOM     29  C   UNL     1       9.915  -1.362  22.497  0.00  0.00    +0.000 C 
ATOM     30  C   UNL     1       9.148  -0.263  21.744  0.00  0.00    +0.000 C 
ATOM     31  C   UNL     1       9.802   1.119  21.930  0.00  0.00    +0.000 C 
BRANCH  31  32
ATOM     32  O   UNL     1       8.934   2.122  21.397  0.00  0.00    +0.000 OA
ATOM     33  H   UNL     1       9.486   2.920  21.279  0.00  0.00    +0.000 HD
ENDBRANCH  31  32
BRANCH  30  34
ATOM     34  O   UNL     1       9.092  -0.546  20.334  0.00  0.00    +0.000 OA
ATOM     35  H   UNL     1      10.020  -0.538  20.020  0.00  0.00    +0.000 HD
ENDBRANCH  30  34
BRANCH  29  36
ATOM     36  O   UNL     1      11.186  -1.547  21.831  0.00  0.00    +0.000 OA
ATOM     37  H   UNL     1      11.403  -2.501  21.889  0.00  0.00    +0.000 HD
ENDBRANCH  29  36
ENDBRANCH  24  28
ENDBRANCH   1  24
BRANCH   5  38
ATOM     38  C   UNL     1       4.852  -2.861  26.853  0.00  0.00    +0.000 C 
BRANCH  38  39
ATOM     39  O   UNL     1       4.752  -2.613  28.262  0.00  0.00    +0.000 OA
BRANCH  39  40
ATOM     40  C   UNL     1       4.310  -3.778  28.949  0.00  0.00    +0.000 C 
ATOM     41  O   UNL     1       5.384  -4.709  28.918  0.00  0.00    +0.000 OA
ATOM     42  C   UNL     1       5.119  -5.941  29.583  0.00  0.00    +0.000 C 
ATOM     43  C   UNL     1       3.919  -6.649  28.951  0.00  0.00    +0.000 C 
ATOM     44  C   UNL     1       2.702  -5.703  28.912  0.00  0.00    +0.000 C 
ATOM     45  C   UNL     1       3.061  -4.359  28.251  0.00  0.00    +0.000 C 
BRANCH  44  46
ATOM     46  O   UNL     1       1.608  -6.339  28.243  0.00  0.00    +0.000 OA
ATOM     47  H   UNL     1       1.411  -5.840  27.429  0.00  0.00    +0.000 HD
ENDBRANCH  44  46
BRANCH  43  48
ATOM     48  O   UNL     1       3.631  -7.848  29.670  0.00  0.00    +0.000 OA
ATOM     49  H   UNL     1       3.648  -8.601  29.052  0.00  0.00    +0.000 HD
ENDBRANCH  43  48
BRANCH  45  50
ATOM     50  O   UNL     1       1.941  -3.460  28.304  0.00  0.00    +0.000 OA
ATOM     51  H   UNL     1       1.542  -3.401  27.420  0.00  0.00    +0.000 HD
ENDBRANCH  45  50
BRANCH  42  52
ATOM     52  C   UNL     1       6.408  -6.758  29.440  0.00  0.00    +0.000 C 
BRANCH  52  53
ATOM     53  O   UNL     1       7.154  -6.267  28.319  0.00  0.00    +0.000 OA
ATOM     54  H   UNL     1       7.541  -7.059  27.900  0.00  0.00    +0.000 HD
ENDBRANCH  52  53
ENDBRANCH  42  52
ENDBRANCH  39  40
ENDBRANCH  38  39
ENDBRANCH   5  38
BRANCH   3  55
ATOM     55  O   UNL     1       7.677  -5.607  24.299  0.00  0.00    +0.000 OA
BRANCH  55  56
ATOM     56  C   UNL     1       7.231  -5.289  22.983  0.00  0.00    +0.000 C 
BRANCH  56  57
ATOM     57  C   UNL     1       6.015  -6.065  22.445  0.00  0.00    +0.000 C 
BRANCH  57  58
ATOM     58  C   UNL     1       4.710  -5.992  23.217  0.00  0.00    +0.000 A 
ATOM     59  C   UNL     1       4.429  -6.984  24.178  0.00  0.00    +0.000 A 
ATOM     60  C   UNL     1       3.281  -6.888  24.968  0.00  0.00    +0.000 A 
ATOM     61  C   UNL     1       2.418  -5.808  24.823  0.00  0.00    +0.000 A 
ATOM     62  C   UNL     1       2.671  -4.823  23.888  0.00  0.00    +0.000 A 
ATOM     63  C   UNL     1       3.814  -4.919  23.089  0.00  0.00    +0.000 A 
BRANCH  60  64
ATOM     64  O   UNL     1       2.972  -7.830  25.908  0.00  0.00    +0.000 OA
ATOM     65  H   UNL     1       2.014  -7.994  25.863  0.00  0.00    +0.000 HD
ENDBRANCH  60  64
BRANCH  61  66
ATOM     66  O   UNL     1       1.308  -5.705  25.608  0.00  0.00    +0.000 OA
ATOM     67  H   UNL     1       0.772  -5.008  25.181  0.00  0.00    +0.000 HD
ENDBRANCH  61  66
ENDBRANCH  57  58
ENDBRANCH  56  57
ENDBRANCH  55  56
ENDBRANCH   3  55
TORSDOF 26
ENDMDL
MODEL 2
REMARK VINA RESULT:      -6.9      2.613      5.031
REMARK  Name = 
REMARK  27 active torsions:
REMARK  status: ('A' for Active; 'I' for Inactive)
REMARK    1  A    between atoms: C_1  and  C_2
REMARK    2  A    between atoms: C_4  and  O_5
REMARK    3  A    between atoms: O_5  and  C_6
REMARK    4  A    between atoms: C_7  and  O_8
REMARK    5  A    between atoms: C_9  and  O_10
REMARK    6  A    between atoms: O_10  and  C_11
REMARK    7  A    between atoms: C_11  and  C_12
REMARK    8  A    between atoms: C_12  and  C_13
REMARK    9  A    between atoms: C_15  and  O_16
REMARK   10  A    between atoms: C_17  and  O_18
REMARK   11  A    between atoms: C_22  and  C_23
REMARK   12  A    between atoms: C_23  and  O_24
REMARK   13  A    between atoms: O_24  and  C_25
REMARK   14  A    between atoms: C_27  and  C_28
REMARK   15  A    between atoms: C_28  and  O_29
REMARK   16  A    between atoms: C_30  and  O_31
REMARK   17  A    between atoms: C_32  and  O_33
REMARK   18  A    between atoms: C_34  and  O_35
REMARK   19  A    between atoms: C_36  and  O_37
REMARK   20  A    between atoms: O_37  and  C_38
REMARK   21  A    between atoms: C_38  and  C_40
REMARK   22  A    between atoms: C_41  and  C_42
REMARK   23  A    between atoms: C_44  and  O_45
REMARK   24  A    between atoms: C_46  and  O_47
REMARK   25  A    between atoms: C_50  and  O_51
REMARK   26  A    between atoms: C_52  and  O_53
REMARK   27  A    between atoms: C_54  and  O_55
REMARK                            x       y       z     vdW  Elec       q    Type
REMARK                         _______ _______ _______ _____ _____    ______ ____
ROOT
ATOM      1  C   UNL     1       8.460   2.410  23.762  0.00  0.00    +0.000 C 
ATOM      2  C   UNL     1       9.172   1.500  22.725  0.00  0.00    +0.000 C 
ATOM      3  C   UNL     1       9.957   0.309  23.335  0.00  0.00    +0.000 C 
ATOM      4  O   UNL     1       9.146  -0.332  24.297  0.00  0.00    +0.000 OA
ATOM      5  C   UNL     1       8.871   0.518  25.411  0.00  0.00    +0.000 C 
ATOM      6  C   UNL     1       7.907   1.633  24.974  0.00  0.00    +0.000 C 
ENDROOT
BRANCH   2   7
ATOM      7  O   UNL     1      10.050   2.301  21.909  0.00  0.00    +0.000 OA
ATOM      8  H   UNL     1      10.812   2.573  22.447  0.00  0.00    +0.000 HD
ENDBRANCH   2   7
BRANCH   6   9
ATOM      9  O   UNL     1       7.511   2.522  26.056  0.00  0.00    +0.000 OA
BRANCH   9  10
ATOM     10  C   UNL     1       6.236   2.465  26.515  0.00  0.00    +0.000 C 
ATOM     11  O   UNL     1       5.868   1.876  27.519  0.00  0.00    +0.000 OA
BRANCH  10  12
ATOM     12  C   UNL     1       5.301   3.233  25.667  0.00  0.00    +0.000 C 
ATOM     13  C   UNL     1       4.391   2.680  24.851  0.00  0.00    +0.000 C 
BRANCH  13  14
ATOM     14  C   UNL     1       3.538   3.503  23.989  0.00  0.00    +0.000 A 
ATOM     15  C   UNL     1       3.564   3.351  22.596  0.00  0.00    +0.000 A 
ATOM     16  C   UNL     1       2.751   4.159  21.808  0.00  0.00    +0.000 A 
ATOM     17  C   UNL     1       1.920   5.112  22.393  0.00  0.00    +0.000 A 
ATOM     18  C   UNL     1       1.885   5.270  23.767  0.00  0.00    +0.000 A 
ATOM     19  C   UNL     1       2.699   4.465  24.569  0.00  0.00    +0.000 A 
BRANCH  17  20
ATOM     20  O   UNL     1       1.129   5.904  21.609  0.00  0.00    +0.000 OA
ATOM     21  H   UNL     1       0.218   5.697  21.895  0.00  0.00    +0.000 HD
ENDBRANCH  17  20
BRANCH  16  22
ATOM     22  O   UNL     1       2.728   4.055  20.444  0.00  0.00    +0.000 OA
ATOM     23  H   UNL     1       2.809   3.114  20.208  0.00  0.00    +0.000 HD
ENDBRANCH  16  22
ENDBRANCH  13  14
ENDBRANCH  10  12
ENDBRANCH   9  10
ENDBRANCH   6   9
BRANCH   1  24
ATOM     24  O   UNL     1       7.485   3.359  23.237  0.00  0.00    +0.000 OA
BRANCH  24  28
ATOM     25  C   UNL     1       9.139   6.307  25.561  0.00  0.00    +0.000 C 
ATOM     26  C   UNL     1       8.092   5.725  24.624  0.00  0.00    +0.000 C 
ATOM     27  O   UNL     1       8.760   5.363  23.401  0.00  0.00    +0.000 OA
ATOM     28  C   UNL     1       7.937   4.541  22.572  0.00  0.00    +0.000 C 
ATOM     29  C   UNL     1       6.749   5.431  22.108  0.00  0.00    +0.000 C 
ATOM     30  C   UNL     1       5.973   5.964  23.323  0.00  0.00    +0.000 C 
ATOM     31  C   UNL     1       6.905   6.646  24.341  0.00  0.00    +0.000 C 
BRANCH  31  32
ATOM     32  O   UNL     1       6.171   6.922  25.537  0.00  0.00    +0.000 OA
ATOM     33  H   UNL     1       5.305   7.269  25.246  0.00  0.00    +0.000 HD
ENDBRANCH  31  32
BRANCH  30  34
ATOM     34  O   UNL     1       4.975   6.919  22.921  0.00  0.00    +0.000 OA
ATOM     35  H   UNL     1       5.381   7.448  22.204  0.00  0.00    +0.000 HD
ENDBRANCH  30  34
BRANCH  29  36
ATOM     36  O   UNL     1       7.222   6.572  21.354  0.00  0.00    +0.000 OA
ATOM     37  H   UNL     1       6.956   6.428  20.422  0.00  0.00    +0.000 HD
ENDBRANCH  29  36
ENDBRANCH  24  28
ENDBRANCH   1  24
BRANCH   5  38
ATOM     38  C   UNL     1       8.240  -0.351  26.491  0.00  0.00    +0.000 C 
BRANCH  38  39
ATOM     39  O   UNL     1       7.854  -1.606  25.914  0.00  0.00    +0.000 OA
BRANCH  39  40
ATOM     40  C   UNL     1       6.674  -2.104  26.534  0.00  0.00    +0.000 C 
ATOM     41  O   UNL     1       6.950  -3.440  26.934  0.00  0.00    +0.000 OA
ATOM     42  C   UNL     1       5.871  -4.095  27.595  0.00  0.00    +0.000 C 
ATOM     43  C   UNL     1       4.642  -4.165  26.686  0.00  0.00    +0.000 C 
ATOM     44  C   UNL     1       4.279  -2.757  26.173  0.00  0.00    +0.000 C 
ATOM     45  C   UNL     1       5.498  -2.064  25.534  0.00  0.00    +0.000 C 
BRANCH  44  46
ATOM     46  O   UNL     1       3.183  -2.837  25.255  0.00  0.00    +0.000 OA
ATOM     47  H   UNL     1       3.377  -3.533  24.602  0.00  0.00    +0.000 HD
ENDBRANCH  44  46
BRANCH  43  48
ATOM     48  O   UNL     1       3.554  -4.766  27.387  0.00  0.00    +0.000 OA
ATOM     49  H   UNL     1       2.779  -4.803  26.799  0.00  0.00    +0.000 HD
ENDBRANCH  43  48
BRANCH  45  50
ATOM     50  O   UNL     1       5.162  -0.722  25.144  0.00  0.00    +0.000 OA
ATOM     51  H   UNL     1       5.136  -0.161  25.937  0.00  0.00    +0.000 HD
ENDBRANCH  45  50
BRANCH  42  52
ATOM     52  C   UNL     1       6.404  -5.488  27.947  0.00  0.00    +0.000 C 
BRANCH  52  53
ATOM     53  O   UNL     1       5.858  -6.446  27.030  0.00  0.00    +0.000 OA
ATOM     54  H   UNL     1       5.535  -5.922  26.273  0.00  0.00    +0.000 HD
ENDBRANCH  52  53
ENDBRANCH  42  52
ENDBRANCH  39  40
ENDBRANCH  38  39
ENDBRANCH   5  38
BRANCH   3  55
ATOM     55  O   UNL     1      10.246  -0.580  22.253  0.00  0.00    +0.000 OA
BRANCH  55  56
ATOM     56  C   UNL     1       9.728  -1.904  22.336  0.00  0.00    +0.000 C 
BRANCH  56  57
ATOM     57  C   UNL     1       8.260  -2.114  21.919  0.00  0.00    +0.000 C 
BRANCH  57  58
ATOM     58  C   UNL     1       7.463  -3.209  22.603  0.00  0.00    +0.000 A 
ATOM     59  C   UNL     1       6.087  -3.330  22.322  0.00  0.00    +0.000 A 
ATOM     60  C   UNL     1       5.352  -4.386  22.865  0.00  0.00    +0.000 A 
ATOM     61  C   UNL     1       5.973  -5.331  23.673  0.00  0.00    +0.000 A 
ATOM     62  C   UNL     1       7.321  -5.235  23.963  0.00  0.00    +0.000 A 
ATOM     63  C   UNL     1       8.059  -4.176  23.429  0.00  0.00    +0.000 A 
BRANCH  60  64
ATOM     64  O   UNL     1       4.017  -4.535  22.619  0.00  0.00    +0.000 OA
ATOM     65  H   UNL     1       3.672  -3.680  22.307  0.00  0.00    +0.000 HD
ENDBRANCH  60  64
BRANCH  61  66
ATOM     66  O   UNL     1       5.259  -6.373  24.187  0.00  0.00    +0.000 OA
ATOM     67  H   UNL     1       5.870  -7.134  24.140  0.00  0.00    +0.000 HD
ENDBRANCH  61  66
ENDBRANCH  57  58
ENDBRANCH  56  57
ENDBRANCH  55  56
ENDBRANCH   3  55
TORSDOF 26
ENDMDL
MODEL 3
REMARK VINA RESULT:      -6.9      2.200      9.421
REMARK  Name = 
REMARK  27 active torsions:
REMARK  status: ('A' for Active; 'I' for Inactive)
REMARK    1  A    between atoms: C_1  and  C_2
REMARK    2  A    between atoms: C_4  and  O_5
REMARK    3  A    between atoms: O_5  and  C_6
REMARK    4  A    between atoms: C_7  and  O_8
REMARK    5  A    between atoms: C_9  and  O_10
REMARK    6  A    between atoms: O_10  and  C_11
REMARK    7  A    between atoms: C_11  and  C_12
REMARK    8  A    between atoms: C_12  and  C_13
REMARK    9  A    between atoms: C_15  and  O_16
REMARK   10  A    between atoms: C_17  and  O_18
REMARK   11  A    between atoms: C_22  and  C_23
REMARK   12  A    between atoms: C_23  and  O_24
REMARK   13  A    between atoms: O_24  and  C_25
REMARK   14  A    between atoms: C_27  and  C_28
REMARK   15  A    between atoms: C_28  and  O_29
REMARK   16  A    between atoms: C_30  and  O_31
REMARK   17  A    between atoms: C_32  and  O_33
REMARK   18  A    between atoms: C_34  and  O_35
REMARK   19  A    between atoms: C_36  and  O_37
REMARK   20  A    between atoms: O_37  and  C_38
REMARK   21  A    between atoms: C_38  and  C_40
REMARK   22  A    between atoms: C_41  and  C_42
REMARK   23  A    between atoms: C_44  and  O_45
REMARK   24  A    between atoms: C_46  and  O_47
REMARK   25  A    between atoms: C_50  and  O_51
REMARK   26  A    between atoms: C_52  and  O_53
REMARK   27  A    between atoms: C_54  and  O_55
REMARK                            x       y       z     vdW  Elec       q    Type
REMARK                         _______ _______ _______ _____ _____    ______ ____
ROOT
ATOM      1  C   UNL     1       8.266  -1.158  24.044  0.00  0.00    +0.000 C 
ATOM      2  C   UNL     1       9.368  -0.264  23.413  0.00  0.00    +0.000 C 
ATOM      3  C   UNL     1       8.838   0.956  22.615  0.00  0.00    +0.000 C 
ATOM      4  O   UNL     1       7.845   1.609  23.377  0.00  0.00    +0.000 OA
ATOM      5  C   UNL     1       6.695   0.785  23.569  0.00  0.00    +0.000 C 
ATOM      6  C   UNL     1       7.043  -0.358  24.537  0.00  0.00    +0.000 C 
ENDROOT
BRANCH   2   7
ATOM      7  O   UNL     1      10.215  -1.071  22.572  0.00  0.00    +0.000 OA
ATOM      8  H   UNL     1      10.954  -1.408  23.106  0.00  0.00    +0.000 HD
ENDBRANCH   2   7
BRANCH   6   9
ATOM      9  O   UNL     1       5.916  -1.224  24.850  0.00  0.00    +0.000 OA
BRANCH   9  10
ATOM     10  C   UNL     1       5.449  -1.254  26.123  0.00  0.00    +0.000 C 
ATOM     11  O   UNL     1       5.426  -0.307  26.894  0.00  0.00    +0.000 OA
BRANCH  10  12
ATOM     12  C   UNL     1       4.928  -2.585  26.497  0.00  0.00    +0.000 C 
ATOM     13  C   UNL     1       4.447  -2.895  27.710  0.00  0.00    +0.000 C 
BRANCH  13  14
ATOM     14  C   UNL     1       4.005  -4.256  28.030  0.00  0.00    +0.000 A 
ATOM     15  C   UNL     1       4.932  -5.295  28.188  0.00  0.00    +0.000 A 
ATOM     16  C   UNL     1       4.476  -6.577  28.478  0.00  0.00    +0.000 A 
ATOM     17  C   UNL     1       3.113  -6.829  28.609  0.00  0.00    +0.000 A 
ATOM     18  C   UNL     1       2.187  -5.812  28.457  0.00  0.00    +0.000 A 
ATOM     19  C   UNL     1       2.635  -4.520  28.163  0.00  0.00    +0.000 A 
BRANCH  17  20
ATOM     20  O   UNL     1       2.674  -8.094  28.889  0.00  0.00    +0.000 OA
ATOM     21  H   UNL     1       3.493  -8.616  29.001  0.00  0.00    +0.000 HD
ENDBRANCH  17  20
BRANCH  16  22
ATOM     22  O   UNL     1       5.332  -7.630  28.649  0.00  0.00    +0.000 OA
ATOM     23  H   UNL     1       4.867  -8.324  29.149  0.00  0.00    +0.000 HD
ENDBRANCH  16  22
ENDBRANCH  13  14
ENDBRANCH  10  12
ENDBRANCH   9  10
ENDBRANCH   6   9
BRANCH   1  24
ATOM     24  O   UNL     1       8.705  -2.137  25.032  0.00  0.00    +0.000 OA
BRANCH  24  28
ATOM     25  C   UNL     1       6.809  -4.574  22.332  0.00  0.00    +0.000 C 
ATOM     26  C   UNL     1       7.426  -4.240  23.682  0.00  0.00    +0.000 C 
ATOM     27  O   UNL     1       8.811  -3.919  23.457  0.00  0.00    +0.000 OA
ATOM     28  C   UNL     1       9.405  -3.307  24.603  0.00  0.00    +0.000 C 
ATOM     29  C   UNL     1       9.442  -4.395  25.714  0.00  0.00    +0.000 C 
ATOM     30  C   UNL     1       8.023  -4.901  26.016  0.00  0.00    +0.000 C 
ATOM     31  C   UNL     1       7.289  -5.341  24.735  0.00  0.00    +0.000 C 
BRANCH  31  32
ATOM     32  O   UNL     1       5.915  -5.590  25.045  0.00  0.00    +0.000 OA
ATOM     33  H   UNL     1       5.509  -5.918  24.219  0.00  0.00    +0.000 HD
ENDBRANCH  31  32
BRANCH  30  34
ATOM     34  O   UNL     1       8.054  -6.021  26.919  0.00  0.00    +0.000 OA
ATOM     35  H   UNL     1       8.981  -6.336  26.926  0.00  0.00    +0.000 HD
ENDBRANCH  30  34
BRANCH  29  36
ATOM     36  O   UNL     1      10.235  -5.531  25.297  0.00  0.00    +0.000 OA
ATOM     37  H   UNL     1      10.633  -5.914  26.106  0.00  0.00    +0.000 HD
ENDBRANCH  29  36
ENDBRANCH  24  28
ENDBRANCH   1  24
BRANCH   5  38
ATOM     38  C   UNL     1       5.601   1.672  24.149  0.00  0.00    +0.000 C 
BRANCH  38  39
ATOM     39  O   UNL     1       6.207   2.804  24.786  0.00  0.00    +0.000 OA
BRANCH  39  40
ATOM     40  C   UNL     1       5.797   2.898  26.145  0.00  0.00    +0.000 C 
ATOM     41  O   UNL     1       5.095   4.127  26.281  0.00  0.00    +0.000 OA
ATOM     42  C   UNL     1       4.593   4.379  27.590  0.00  0.00    +0.000 C 
ATOM     43  C   UNL     1       5.733   4.422  28.609  0.00  0.00    +0.000 C 
ATOM     44  C   UNL     1       6.577   3.135  28.517  0.00  0.00    +0.000 C 
ATOM     45  C   UNL     1       7.033   2.868  27.070  0.00  0.00    +0.000 C 
BRANCH  44  46
ATOM     46  O   UNL     1       7.693   3.216  29.410  0.00  0.00    +0.000 OA
ATOM     47  H   UNL     1       8.212   2.395  29.333  0.00  0.00    +0.000 HD
ENDBRANCH  44  46
BRANCH  43  48
ATOM     48  O   UNL     1       5.204   4.612  29.921  0.00  0.00    +0.000 OA
ATOM     49  H   UNL     1       4.432   5.203  29.869  0.00  0.00    +0.000 HD
ENDBRANCH  43  48
BRANCH  45  50
ATOM     50  O   UNL     1       7.741   1.620  26.991  0.00  0.00    +0.000 OA
ATOM     51  H   UNL     1       7.225   0.999  26.451  0.00  0.00    +0.000 HD
ENDBRANCH  45  50
BRANCH  42  52
ATOM     52  C   UNL     1       3.865   5.724  27.488  0.00  0.00    +0.000 C 
BRANCH  52  53
ATOM     53  O   UNL     1       4.807   6.785  27.691  0.00  0.00    +0.000 OA
ATOM     54  H   UNL     1       4.412   7.566  27.260  0.00  0.00    +0.000 HD
ENDBRANCH  52  53
ENDBRANCH  42  52
ENDBRANCH  39  40
ENDBRANCH  38  39
ENDBRANCH   5  38
BRANCH   3  55
ATOM     55  O   UNL     1       9.959   1.820  22.408  0.00  0.00    +0.000 OA
BRANCH  55  56
ATOM     56  C   UNL     1      10.477   2.505  23.545  0.00  0.00    +0.000 C 
BRANCH  56  57
ATOM     57  C   UNL     1      10.556   4.041  23.468  0.00  0.00    +0.000 C 
BRANCH  57  58
ATOM     58  C   UNL     1       9.316   4.847  23.810  0.00  0.00    +0.000 A 
ATOM     59  C   UNL     1       8.282   4.947  22.858  0.00  0.00    +0.000 A 
ATOM     60  C   UNL     1       7.093   5.603  23.183  0.00  0.00    +0.000 A 
ATOM     61  C   UNL     1       6.915   6.147  24.450  0.00  0.00    +0.000 A 
ATOM     62  C   UNL     1       7.914   6.062  25.401  0.00  0.00    +0.000 A 
ATOM     63  C   UNL     1       9.109   5.414  25.078  0.00  0.00    +0.000 A 
BRANCH  60  64
ATOM     64  O   UNL     1       6.069   5.725  22.287  0.00  0.00    +0.000 OA
ATOM     65  H   UNL     1       6.282   5.175  21.513  0.00  0.00    +0.000 HD
ENDBRANCH  60  64
BRANCH  61  66
ATOM     66  O   UNL     1       5.745   6.770  24.773  0.00  0.00    +0.000 OA
ATOM     67  H   UNL     1       5.953   7.723  24.713  0.00  0.00    +0.000 HD
ENDBRANCH  61  66
ENDBRANCH  57  58
ENDBRANCH  56  57
ENDBRANCH  55  56
ENDBRANCH   3  55
TORSDOF 26
ENDMDL
MODEL 4
REMARK VINA RESULT:      -6.8      1.938      8.272
REMARK  Name = 
REMARK  27 active torsions:
REMARK  status: ('A' for Active; 'I' for Inactive)
REMARK    1  A    between atoms: C_1  and  C_2
REMARK    2  A    between atoms: C_4  and  O_5
REMARK    3  A    between atoms: O_5  and  C_6
REMARK    4  A    between atoms: C_7  and  O_8
REMARK    5  A    between atoms: C_9  and  O_10
REMARK    6  A    between atoms: O_10  and  C_11
REMARK    7  A    between atoms: C_11  and  C_12
REMARK    8  A    between atoms: C_12  and  C_13
REMARK    9  A    between atoms: C_15  and  O_16
REMARK   10  A    between atoms: C_17  and  O_18
REMARK   11  A    between atoms: C_22  and  C_23
REMARK   12  A    between atoms: C_23  and  O_24
REMARK   13  A    between atoms: O_24  and  C_25
REMARK   14  A    between atoms: C_27  and  C_28
REMARK   15  A    between atoms: C_28  and  O_29
REMARK   16  A    between atoms: C_30  and  O_31
REMARK   17  A    between atoms: C_32  and  O_33
REMARK   18  A    between atoms: C_34  and  O_35
REMARK   19  A    between atoms: C_36  and  O_37
REMARK   20  A    between atoms: O_37  and  C_38
REMARK   21  A    between atoms: C_38  and  C_40
REMARK   22  A    between atoms: C_41  and  C_42
REMARK   23  A    between atoms: C_44  and  O_45
REMARK   24  A    between atoms: C_46  and  O_47
REMARK   25  A    between atoms: C_50  and  O_51
REMARK   26  A    between atoms: C_52  and  O_53
REMARK   27  A    between atoms: C_54  and  O_55
REMARK                            x       y       z     vdW  Elec       q    Type
REMARK                         _______ _______ _______ _____ _____    ______ ____
ROOT
ATOM      1  C   UNL     1       6.812   0.246  26.290  0.00  0.00    +0.000 C 
ATOM      2  C   UNL     1       8.091   0.229  25.409  0.00  0.00    +0.000 C 
ATOM      3  C   UNL     1       9.001  -1.010  25.608  0.00  0.00    +0.000 C 
ATOM      4  O   UNL     1       8.203  -2.175  25.596  0.00  0.00    +0.000 OA
ATOM      5  C   UNL     1       7.304  -2.214  26.705  0.00  0.00    +0.000 C 
ATOM      6  C   UNL     1       6.207  -1.155  26.509  0.00  0.00    +0.000 C 
ENDROOT
BRANCH   2   7
ATOM      7  O   UNL     1       8.846   1.436  25.639  0.00  0.00    +0.000 OA
ATOM      8  H   UNL     1       9.452   1.285  26.384  0.00  0.00    +0.000 HD
ENDBRANCH   2   7
BRANCH   6   9
ATOM      9  O   UNL     1       5.199  -1.155  27.559  0.00  0.00    +0.000 OA
BRANCH   9  10
ATOM     10  C   UNL     1       3.902  -1.355  27.219  0.00  0.00    +0.000 C 
ATOM     11  O   UNL     1       3.159  -0.521  26.727  0.00  0.00    +0.000 OA
BRANCH  10  12
ATOM     12  C   UNL     1       3.460  -2.740  27.485  0.00  0.00    +0.000 C 
ATOM     13  C   UNL     1       3.531  -3.339  28.683  0.00  0.00    +0.000 C 
BRANCH  13  14
ATOM     14  C   UNL     1       3.133  -4.740  28.862  0.00  0.00    +0.000 A 
ATOM     15  C   UNL     1       2.794  -5.537  27.759  0.00  0.00    +0.000 A 
ATOM     16  C   UNL     1       2.408  -6.857  27.968  0.00  0.00    +0.000 A 
ATOM     17  C   UNL     1       2.355  -7.384  29.255  0.00  0.00    +0.000 A 
ATOM     18  C   UNL     1       2.688  -6.607  30.351  0.00  0.00    +0.000 A 
ATOM     19  C   UNL     1       3.076  -5.278  30.154  0.00  0.00    +0.000 A 
BRANCH  17  20
ATOM     20  O   UNL     1       1.968  -8.681  29.449  0.00  0.00    +0.000 OA
ATOM     21  H   UNL     1       1.385  -8.646  30.233  0.00  0.00    +0.000 HD
ENDBRANCH  17  20
BRANCH  16  22
ATOM     22  O   UNL     1       2.070  -7.685  26.933  0.00  0.00    +0.000 OA
ATOM     23  H   UNL     1       2.437  -7.313  26.111  0.00  0.00    +0.000 HD
ENDBRANCH  16  22
ENDBRANCH  13  14
ENDBRANCH  10  12
ENDBRANCH   9  10
ENDBRANCH   6   9
BRANCH   1  24
ATOM     24  O   UNL     1       5.791   1.227  25.939  0.00  0.00    +0.000 OA
BRANCH  24  28
ATOM     25  C   UNL     1       2.904   3.913  24.807  0.00  0.00    +0.000 C 
ATOM     26  C   UNL     1       4.309   3.501  25.219  0.00  0.00    +0.000 C 
ATOM     27  O   UNL     1       4.220   2.916  26.532  0.00  0.00    +0.000 OA
ATOM     28  C   UNL     1       5.422   2.231  26.888  0.00  0.00    +0.000 C 
ATOM     29  C   UNL     1       6.524   3.320  27.030  0.00  0.00    +0.000 C 
ATOM     30  C   UNL     1       6.685   4.095  25.713  0.00  0.00    +0.000 C 
ATOM     31  C   UNL     1       5.337   4.634  25.200  0.00  0.00    +0.000 C 
BRANCH  31  32
ATOM     32  O   UNL     1       5.511   5.148  23.877  0.00  0.00    +0.000 OA
ATOM     33  H   UNL     1       6.336   5.673  23.900  0.00  0.00    +0.000 HD
ENDBRANCH  31  32
BRANCH  30  34
ATOM     34  O   UNL     1       7.579   5.210  25.876  0.00  0.00    +0.000 OA
ATOM     35  H   UNL     1       7.355   5.613  26.739  0.00  0.00    +0.000 HD
ENDBRANCH  30  34
BRANCH  29  36
ATOM     36  O   UNL     1       6.177   4.273  28.062  0.00  0.00    +0.000 OA
ATOM     37  H   UNL     1       5.930   3.756  28.857  0.00  0.00    +0.000 HD
ENDBRANCH  29  36
ENDBRANCH  24  28
ENDBRANCH   1  24
BRANCH   5  38
ATOM     38  C   UNL     1       6.705  -3.614  26.746  0.00  0.00    +0.000 C 
BRANCH  38  39
ATOM     39  O   UNL     1       7.672  -4.550  26.250  0.00  0.00    +0.000 OA
BRANCH  39  40
ATOM     40  C   UNL     1       7.125  -5.324  25.189  0.00  0.00    +0.000 C 
ATOM     41  O   UNL     1       7.063  -4.478  24.049  0.00  0.00    +0.000 OA
ATOM     42  C   UNL     1       6.550  -5.102  22.875  0.00  0.00    +0.000 C 
ATOM     43  C   UNL     1       5.126  -5.610  23.111  0.00  0.00    +0.000 C 
ATOM     44  C   UNL     1       5.084  -6.521  24.354  0.00  0.00    +0.000 C 
ATOM     45  C   UNL     1       5.717  -5.827  25.576  0.00  0.00    +0.000 C 
BRANCH  44  46
ATOM     46  O   UNL     1       3.737  -6.923  24.622  0.00  0.00    +0.000 OA
ATOM     47  H   UNL     1       3.293  -6.209  25.114  0.00  0.00    +0.000 HD
ENDBRANCH  44  46
BRANCH  43  48
ATOM     48  O   UNL     1       4.654  -6.287  21.946  0.00  0.00    +0.000 OA
ATOM     49  H   UNL     1       3.712  -6.076  21.816  0.00  0.00    +0.000 HD
ENDBRANCH  43  48
BRANCH  45  50
ATOM     50  O   UNL     1       5.749  -6.724  26.699  0.00  0.00    +0.000 OA
ATOM     51  H   UNL     1       6.512  -7.319  26.604  0.00  0.00    +0.000 HD
ENDBRANCH  45  50
BRANCH  42  52
ATOM     52  C   UNL     1       6.601  -4.021  21.791  0.00  0.00    +0.000 C 
BRANCH  52  53
ATOM     53  O   UNL     1       5.279  -3.510  21.573  0.00  0.00    +0.000 OA
ATOM     54  H   UNL     1       5.173  -3.473  20.604  0.00  0.00    +0.000 HD
ENDBRANCH  52  53
ENDBRANCH  42  52
ENDBRANCH  39  40
ENDBRANCH  38  39
ENDBRANCH   5  38
BRANCH   3  55
ATOM     55  O   UNL     1       9.916  -1.020  24.508  0.00  0.00    +0.000 OA
BRANCH  55  56
ATOM     56  C   UNL     1       9.388  -1.322  23.220  0.00  0.00    +0.000 C 
BRANCH  56  57
ATOM     57  C   UNL     1       9.752  -0.366  22.068  0.00  0.00    +0.000 C 
BRANCH  57  58
ATOM     58  C   UNL     1       9.424   1.108  22.221  0.00  0.00    +0.000 A 
ATOM     59  C   UNL     1       8.137   1.562  21.869  0.00  0.00    +0.000 A 
ATOM     60  C   UNL     1       7.781   2.895  22.088  0.00  0.00    +0.000 A 
ATOM     61  C   UNL     1       8.685   3.777  22.668  0.00  0.00    +0.000 A 
ATOM     62  C   UNL     1       9.953   3.356  23.021  0.00  0.00    +0.000 A 
ATOM     63  C   UNL     1      10.318   2.027  22.796  0.00  0.00    +0.000 A 
BRANCH  60  64
ATOM     64  O   UNL     1       6.545   3.373  21.758  0.00  0.00    +0.000 OA
ATOM     65  H   UNL     1       5.963   3.256  22.528  0.00  0.00    +0.000 HD
ENDBRANCH  60  64
BRANCH  61  66
ATOM     66  O   UNL     1       8.330   5.073  22.899  0.00  0.00    +0.000 OA
ATOM     67  H   UNL     1       9.167   5.572  22.825  0.00  0.00    +0.000 HD
ENDBRANCH  61  66
ENDBRANCH  57  58
ENDBRANCH  56  57
ENDBRANCH  55  56
ENDBRANCH   3  55
TORSDOF 26
ENDMDL
MODEL 5
REMARK VINA RESULT:      -6.8      2.501      4.808
REMARK  Name = 
REMARK  27 active torsions:
REMARK  status: ('A' for Active; 'I' for Inactive)
REMARK    1  A    between atoms: C_1  and  C_2
REMARK    2  A    between atoms: C_4  and  O_5
REMARK    3  A    between atoms: O_5  and  C_6
REMARK    4  A    between atoms: C_7  and  O_8
REMARK    5  A    between atoms: C_9  and  O_10
REMARK    6  A    between atoms: O_10  and  C_11
REMARK    7  A    between atoms: C_11  and  C_12
REMARK    8  A    between atoms: C_12  and  C_13
REMARK    9  A    between atoms: C_15  and  O_16
REMARK   10  A    between atoms: C_17  and  O_18
REMARK   11  A    between atoms: C_22  and  C_23
REMARK   12  A    between atoms: C_23  and  O_24
REMARK   13  A    between atoms: O_24  and  C_25
REMARK   14  A    between atoms: C_27  and  C_28
REMARK   15  A    between atoms: C_28  and  O_29
REMARK   16  A    between atoms: C_30  and  O_31
REMARK   17  A    between atoms: C_32  and  O_33
REMARK   18  A    between atoms: C_34  and  O_35
REMARK   19  A    between atoms: C_36  and  O_37
REMARK   20  A    between atoms: O_37  and  C_38
REMARK   21  A    between atoms: C_38  and  C_40
REMARK   22  A    between atoms: C_41  and  C_42
REMARK   23  A    between atoms: C_44  and  O_45
REMARK   24  A    between atoms: C_46  and  O_47
REMARK   25  A    between atoms: C_50  and  O_51
REMARK   26  A    between atoms: C_52  and  O_53
REMARK   27  A    between atoms: C_54  and  O_55
REMARK                            x       y       z     vdW  Elec       q    Type
REMARK                         _______ _______ _______ _____ _____    ______ ____
ROOT
ATOM      1  C   UNL     1       8.620   1.878  24.982  0.00  0.00    +0.000 C 
ATOM      2  C   UNL     1       9.233   1.111  23.779  0.00  0.00    +0.000 C 
ATOM      3  C   UNL     1       9.669  -0.345  24.090  0.00  0.00    +0.000 C 
ATOM      4  O   UNL     1       8.634  -0.993  24.800  0.00  0.00    +0.000 OA
ATOM      5  C   UNL     1       8.422  -0.405  26.084  0.00  0.00    +0.000 C 
ATOM      6  C   UNL     1       7.778   0.980  25.909  0.00  0.00    +0.000 C 
ENDROOT
BRANCH   2   7
ATOM      7  O   UNL     1      10.351   1.856  23.256  0.00  0.00    +0.000 OA
ATOM      8  H   UNL     1      10.746   2.373  23.979  0.00  0.00    +0.000 HD
ENDBRANCH   2   7
BRANCH   6   9
ATOM      9  O   UNL     1       7.461   1.640  27.167  0.00  0.00    +0.000 OA
BRANCH   9  10
ATOM     10  C   UNL     1       6.163   1.732  27.548  0.00  0.00    +0.000 C 
ATOM     11  O   UNL     1       5.689   1.276  28.577  0.00  0.00    +0.000 OA
BRANCH  10  12
ATOM     12  C   UNL     1       5.346   2.488  26.575  0.00  0.00    +0.000 C 
ATOM     13  C   UNL     1       4.234   2.016  25.993  0.00  0.00    +0.000 C 
BRANCH  13  14
ATOM     14  C   UNL     1       3.508   2.798  24.987  0.00  0.00    +0.000 A 
ATOM     15  C   UNL     1       4.089   3.088  23.745  0.00  0.00    +0.000 A 
ATOM     16  C   UNL     1       3.377   3.844  22.820  0.00  0.00    +0.000 A 
ATOM     17  C   UNL     1       2.100   4.311  23.122  0.00  0.00    +0.000 A 
ATOM     18  C   UNL     1       1.515   4.030  24.344  0.00  0.00    +0.000 A 
ATOM     19  C   UNL     1       2.223   3.273  25.282  0.00  0.00    +0.000 A 
BRANCH  17  20
ATOM     20  O   UNL     1       1.410   5.058  22.208  0.00  0.00    +0.000 OA
ATOM     21  H   UNL     1       1.064   5.813  22.723  0.00  0.00    +0.000 HD
ENDBRANCH  17  20
BRANCH  16  22
ATOM     22  O   UNL     1       3.888   4.156  21.590  0.00  0.00    +0.000 OA
ATOM     23  H   UNL     1       4.266   3.347  21.203  0.00  0.00    +0.000 HD
ENDBRANCH  16  22
ENDBRANCH  13  14
ENDBRANCH  10  12
ENDBRANCH   9  10
ENDBRANCH   6   9
BRANCH   1  24
ATOM     24  O   UNL     1       7.939   3.132  24.678  0.00  0.00    +0.000 OA
BRANCH  24  28
ATOM     25  C   UNL     1       6.116   6.492  26.167  0.00  0.00    +0.000 C 
ATOM     26  C   UNL     1       6.737   5.639  25.071  0.00  0.00    +0.000 C 
ATOM     27  O   UNL     1       8.103   5.379  25.447  0.00  0.00    +0.000 OA
ATOM     28  C   UNL     1       8.685   4.350  24.645  0.00  0.00    +0.000 C 
ATOM     29  C   UNL     1       8.790   4.922  23.202  0.00  0.00    +0.000 C 
ATOM     30  C   UNL     1       7.400   5.324  22.683  0.00  0.00    +0.000 C 
ATOM     31  C   UNL     1       6.668   6.251  23.671  0.00  0.00    +0.000 C 
BRANCH  31  32
ATOM     32  O   UNL     1       5.312   6.412  23.245  0.00  0.00    +0.000 OA
ATOM     33  H   UNL     1       4.853   5.586  23.494  0.00  0.00    +0.000 HD
ENDBRANCH  31  32
BRANCH  30  34
ATOM     34  O   UNL     1       7.498   6.005  21.419  0.00  0.00    +0.000 OA
ATOM     35  H   UNL     1       7.107   6.892  21.560  0.00  0.00    +0.000 HD
ENDBRANCH  30  34
BRANCH  29  36
ATOM     36  O   UNL     1       9.628   6.101  23.174  0.00  0.00    +0.000 OA
ATOM     37  H   UNL     1       9.030   6.876  23.135  0.00  0.00    +0.000 HD
ENDBRANCH  29  36
ENDBRANCH  24  28
ENDBRANCH   1  24
BRANCH   5  38
ATOM     38  C   UNL     1       7.499  -1.339  26.856  0.00  0.00    +0.000 C 
BRANCH  38  39
ATOM     39  O   UNL     1       7.994  -2.680  26.747  0.00  0.00    +0.000 OA
BRANCH  39  40
ATOM     40  C   UNL     1       6.968  -3.562  26.307  0.00  0.00    +0.000 C 
ATOM     41  O   UNL     1       5.734  -2.878  26.476  0.00  0.00    +0.000 OA
ATOM     42  C   UNL     1       4.587  -3.617  26.064  0.00  0.00    +0.000 C 
ATOM     43  C   UNL     1       4.468  -4.919  26.859  0.00  0.00    +0.000 C 
ATOM     44  C   UNL     1       5.779  -5.724  26.760  0.00  0.00    +0.000 C 
ATOM     45  C   UNL     1       6.995  -4.859  27.144  0.00  0.00    +0.000 C 
BRANCH  44  46
ATOM     46  O   UNL     1       5.696  -6.898  27.575  0.00  0.00    +0.000 OA
ATOM     47  H   UNL     1       4.783  -6.982  27.904  0.00  0.00    +0.000 HD
ENDBRANCH  44  46
BRANCH  43  48
ATOM     48  O   UNL     1       3.351  -5.673  26.389  0.00  0.00    +0.000 OA
ATOM     49  H   UNL     1       3.135  -5.390  25.482  0.00  0.00    +0.000 HD
ENDBRANCH  43  48
BRANCH  45  50
ATOM     50  O   UNL     1       8.213  -5.600  26.961  0.00  0.00    +0.000 OA
ATOM     51  H   UNL     1       8.716  -5.589  27.792  0.00  0.00    +0.000 HD
ENDBRANCH  45  50
BRANCH  42  52
ATOM     52  C   UNL     1       3.398  -2.682  26.313  0.00  0.00    +0.000 C 
BRANCH  52  53
ATOM     53  O   UNL     1       2.381  -2.946  25.338  0.00  0.00    +0.000 OA
ATOM     54  H   UNL     1       2.280  -2.113  24.840  0.00  0.00    +0.000 HD
ENDBRANCH  52  53
ENDBRANCH  42  52
ENDBRANCH  39  40
ENDBRANCH  38  39
ENDBRANCH   5  38
BRANCH   3  55
ATOM     55  O   UNL     1       9.881  -0.981  22.826  0.00  0.00    +0.000 OA
BRANCH  55  56
ATOM     56  C   UNL     1       9.361  -2.296  22.658  0.00  0.00    +0.000 C 
BRANCH  56  57
ATOM     57  C   UNL     1       7.937  -2.423  22.087  0.00  0.00    +0.000 C 
BRANCH  57  58
ATOM     58  C   UNL     1       7.090  -3.608  22.513  0.00  0.00    +0.000 A 
ATOM     59  C   UNL     1       5.689  -3.462  22.570  0.00  0.00    +0.000 A 
ATOM     60  C   UNL     1       4.882  -4.562  22.867  0.00  0.00    +0.000 A 
ATOM     61  C   UNL     1       5.451  -5.810  23.093  0.00  0.00    +0.000 A 
ATOM     62  C   UNL     1       6.822  -5.979  23.042  0.00  0.00    +0.000 A 
ATOM     63  C   UNL     1       7.634  -4.881  22.754  0.00  0.00    +0.000 A 
BRANCH  60  64
ATOM     64  O   UNL     1       3.521  -4.459  22.935  0.00  0.00    +0.000 OA
ATOM     65  H   UNL     1       3.161  -4.675  22.058  0.00  0.00    +0.000 HD
ENDBRANCH  60  64
BRANCH  61  66
ATOM     66  O   UNL     1       4.661  -6.888  23.363  0.00  0.00    +0.000 OA
ATOM     67  H   UNL     1       4.923  -7.162  24.264  0.00  0.00    +0.000 HD
ENDBRANCH  61  66
ENDBRANCH  57  58
ENDBRANCH  56  57
ENDBRANCH  55  56
ENDBRANCH   3  55
TORSDOF 26
ENDMDL
MODEL 6
REMARK VINA RESULT:      -6.8      3.054      6.471
REMARK  Name = 
REMARK  27 active torsions:
REMARK  status: ('A' for Active; 'I' for Inactive)
REMARK    1  A    between atoms: C_1  and  C_2
REMARK    2  A    between atoms: C_4  and  O_5
REMARK    3  A    between atoms: O_5  and  C_6
REMARK    4  A    between atoms: C_7  and  O_8
REMARK    5  A    between atoms: C_9  and  O_10
REMARK    6  A    between atoms: O_10  and  C_11
REMARK    7  A    between atoms: C_11  and  C_12
REMARK    8  A    between atoms: C_12  and  C_13
REMARK    9  A    between atoms: C_15  and  O_16
REMARK   10  A    between atoms: C_17  and  O_18
REMARK   11  A    between atoms: C_22  and  C_23
REMARK   12  A    between atoms: C_23  and  O_24
REMARK   13  A    between atoms: O_24  and  C_25
REMARK   14  A    between atoms: C_27  and  C_28
REMARK   15  A    between atoms: C_28  and  O_29
REMARK   16  A    between atoms: C_30  and  O_31
REMARK   17  A    between atoms: C_32  and  O_33
REMARK   18  A    between atoms: C_34  and  O_35
REMARK   19  A    between atoms: C_36  and  O_37
REMARK   20  A    between atoms: O_37  and  C_38
REMARK   21  A    between atoms: C_38  and  C_40
REMARK   22  A    between atoms: C_41  and  C_42
REMARK   23  A    between atoms: C_44  and  O_45
REMARK   24  A    between atoms: C_46  and  O_47
REMARK   25  A    between atoms: C_50  and  O_51
REMARK   26  A    between atoms: C_52  and  O_53
REMARK   27  A    between atoms: C_54  and  O_55
REMARK                            x       y       z     vdW  Elec       q    Type
REMARK                         _______ _______ _______ _____ _____    ______ ____
ROOT
ATOM      1  C   UNL     1       6.356   0.592  25.732  0.00  0.00    +0.000 C 
ATOM      2  C   UNL     1       5.713  -0.803  25.500  0.00  0.00    +0.000 C 
ATOM      3  C   UNL     1       4.451  -1.087  26.355  0.00  0.00    +0.000 C 
ATOM      4  O   UNL     1       3.591   0.031  26.290  0.00  0.00    +0.000 OA
ATOM      5  C   UNL     1       4.174   1.186  26.895  0.00  0.00    +0.000 C 
ATOM      6  C   UNL     1       5.320   1.700  26.008  0.00  0.00    +0.000 C 
ENDROOT
BRANCH   2   7
ATOM      7  O   UNL     1       6.701  -1.828  25.727  0.00  0.00    +0.000 OA
ATOM      8  H   UNL     1       7.471  -1.648  25.161  0.00  0.00    +0.000 HD
ENDBRANCH   2   7
BRANCH   6   9
ATOM      9  O   UNL     1       5.944   2.917  26.506  0.00  0.00    +0.000 OA
BRANCH   9  10
ATOM     10  C   UNL     1       6.051   3.983  25.674  0.00  0.00    +0.000 C 
ATOM     11  O   UNL     1       5.123   4.664  25.268  0.00  0.00    +0.000 OA
BRANCH  10  12
ATOM     12  C   UNL     1       7.454   4.270  25.310  0.00  0.00    +0.000 C 
ATOM     13  C   UNL     1       8.025   5.481  25.396  0.00  0.00    +0.000 C 
BRANCH  13  14
ATOM     14  C   UNL     1       9.406   5.707  24.957  0.00  0.00    +0.000 A 
ATOM     15  C   UNL     1       9.962   4.950  23.916  0.00  0.00    +0.000 A 
ATOM     16  C   UNL     1      11.280   5.182  23.535  0.00  0.00    +0.000 A 
ATOM     17  C   UNL     1      12.042   6.153  24.180  0.00  0.00    +0.000 A 
ATOM     18  C   UNL     1      11.504   6.907  25.208  0.00  0.00    +0.000 A 
ATOM     19  C   UNL     1      10.181   6.681  25.601  0.00  0.00    +0.000 A 
BRANCH  17  20
ATOM     20  O   UNL     1      13.338   6.370  23.801  0.00  0.00    +0.000 OA
ATOM     21  H   UNL     1      13.390   6.008  22.895  0.00  0.00    +0.000 HD
ENDBRANCH  17  20
BRANCH  16  22
ATOM     22  O   UNL     1      11.876   4.480  22.524  0.00  0.00    +0.000 OA
ATOM     23  H   UNL     1      11.329   4.572  21.724  0.00  0.00    +0.000 HD
ENDBRANCH  16  22
ENDBRANCH  13  14
ENDBRANCH  10  12
ENDBRANCH   9  10
ENDBRANCH   6   9
BRANCH   1  24
ATOM     24  O   UNL     1       7.358   1.019  24.761  0.00  0.00    +0.000 OA
BRANCH  24  28
ATOM     25  C   UNL     1       7.992  -2.212  22.314  0.00  0.00    +0.000 C 
ATOM     26  C   UNL     1       8.220  -0.785  22.789  0.00  0.00    +0.000 C 
ATOM     27  O   UNL     1       6.963  -0.090  22.691  0.00  0.00    +0.000 OA
ATOM     28  C   UNL     1       6.993   1.158  23.386  0.00  0.00    +0.000 C 
ATOM     29  C   UNL     1       7.992   2.067  22.614  0.00  0.00    +0.000 C 
ATOM     30  C   UNL     1       9.382   1.415  22.565  0.00  0.00    +0.000 C 
ATOM     31  C   UNL     1       9.317  -0.030  22.037  0.00  0.00    +0.000 C 
BRANCH  31  32
ATOM     32  O   UNL     1      10.590  -0.654  22.219  0.00  0.00    +0.000 OA
ATOM     33  H   UNL     1      10.421  -1.616  22.212  0.00  0.00    +0.000 HD
ENDBRANCH  31  32
BRANCH  30  34
ATOM     34  O   UNL     1      10.274   2.161  21.717  0.00  0.00    +0.000 OA
ATOM     35  H   UNL     1       9.824   2.234  20.851  0.00  0.00    +0.000 HD
ENDBRANCH  30  34
BRANCH  29  36
ATOM     36  O   UNL     1       7.554   2.274  21.251  0.00  0.00    +0.000 OA
ATOM     37  H   UNL     1       6.730   1.758  21.134  0.00  0.00    +0.000 HD
ENDBRANCH  29  36
ENDBRANCH  24  28
ENDBRANCH   1  24
BRANCH   5  38
ATOM     38  C   UNL     1       3.073   2.231  27.018  0.00  0.00    +0.000 C 
BRANCH  38  39
ATOM     39  O   UNL     1       1.921   1.783  26.291  0.00  0.00    +0.000 OA
BRANCH  39  40
ATOM     40  C   UNL     1       1.530   2.748  25.321  0.00  0.00    +0.000 C 
ATOM     41  O   UNL     1       2.510   2.720  24.291  0.00  0.00    +0.000 OA
ATOM     42  C   UNL     1       2.264   3.623  23.217  0.00  0.00    +0.000 C 
ATOM     43  C   UNL     1       2.215   5.066  23.723  0.00  0.00    +0.000 C 
ATOM     44  C   UNL     1       1.193   5.193  24.870  0.00  0.00    +0.000 C 
ATOM     45  C   UNL     1       1.457   4.147  25.971  0.00  0.00    +0.000 C 
BRANCH  44  46
ATOM     46  O   UNL     1       1.212   6.523  25.399  0.00  0.00    +0.000 OA
ATOM     47  H   UNL     1       0.436   7.003  25.057  0.00  0.00    +0.000 HD
ENDBRANCH  44  46
BRANCH  43  48
ATOM     48  O   UNL     1       1.906   5.948  22.643  0.00  0.00    +0.000 OA
ATOM     49  H   UNL     1       2.713   6.106  22.121  0.00  0.00    +0.000 HD
ENDBRANCH  43  48
BRANCH  45  50
ATOM     50  O   UNL     1       0.443   4.223  26.986  0.00  0.00    +0.000 OA
ATOM     51  H   UNL     1      -0.240   4.854  26.702  0.00  0.00    +0.000 HD
ENDBRANCH  45  50
BRANCH  42  52
ATOM     52  C   UNL     1       3.420   3.400  22.234  0.00  0.00    +0.000 C 
BRANCH  52  53
ATOM     53  O   UNL     1       4.359   4.475  22.361  0.00  0.00    +0.000 OA
ATOM     54  H   UNL     1       4.462   4.835  21.459  0.00  0.00    +0.000 HD
ENDBRANCH  52  53
ENDBRANCH  42  52
ENDBRANCH  39  40
ENDBRANCH  38  39
ENDBRANCH   5  38
BRANCH   3  55
ATOM     55  O   UNL     1       3.822  -2.234  25.776  0.00  0.00    +0.000 OA
BRANCH  55  56
ATOM     56  C   UNL     1       3.704  -3.397  26.591  0.00  0.00    +0.000 C 
BRANCH  56  57
ATOM     57  C   UNL     1       4.170  -4.733  25.984  0.00  0.00    +0.000 C 
BRANCH  57  58
ATOM     58  C   UNL     1       5.659  -5.024  25.934  0.00  0.00    +0.000 A 
ATOM     59  C   UNL     1       6.287  -5.156  24.680  0.00  0.00    +0.000 A 
ATOM     60  C   UNL     1       7.671  -5.330  24.605  0.00  0.00    +0.000 A 
ATOM     61  C   UNL     1       8.439  -5.359  25.764  0.00  0.00    +0.000 A 
ATOM     62  C   UNL     1       7.846  -5.233  27.006  0.00  0.00    +0.000 A 
ATOM     63  C   UNL     1       6.461  -5.067  27.087  0.00  0.00    +0.000 A 
BRANCH  60  64
ATOM     64  O   UNL     1       8.317  -5.465  23.409  0.00  0.00    +0.000 OA
ATOM     65  H   UNL     1       8.226  -6.390  23.122  0.00  0.00    +0.000 HD
ENDBRANCH  60  64
BRANCH  61  66
ATOM     66  O   UNL     1       9.792  -5.510  25.689  0.00  0.00    +0.000 OA
ATOM     67  H   UNL     1       9.995  -6.211  26.339  0.00  0.00    +0.000 HD
ENDBRANCH  61  66
ENDBRANCH  57  58
ENDBRANCH  56  57
ENDBRANCH  55  56
ENDBRANCH   3  55
TORSDOF 26
ENDMDL
MODEL 7
REMARK VINA RESULT:      -6.7      2.158      8.122
REMARK  Name = 
REMARK  27 active torsions:
REMARK  status: ('A' for Active; 'I' for Inactive)
REMARK    1  A    between atoms: C_1  and  C_2
REMARK    2  A    between atoms: C_4  and  O_5
REMARK    3  A    between atoms: O_5  and  C_6
REMARK    4  A    between atoms: C_7  and  O_8
REMARK    5  A    between atoms: C_9  and  O_10
REMARK    6  A    between atoms: O_10  and  C_11
REMARK    7  A    between atoms: C_11  and  C_12
REMARK    8  A    between atoms: C_12  and  C_13
REMARK    9  A    between atoms: C_15  and  O_16
REMARK   10  A    between atoms: C_17  and  O_18
REMARK   11  A    between atoms: C_22  and  C_23
REMARK   12  A    between atoms: C_23  and  O_24
REMARK   13  A    between atoms: O_24  and  C_25
REMARK   14  A    between atoms: C_27  and  C_28
REMARK   15  A    between atoms: C_28  and  O_29
REMARK   16  A    between atoms: C_30  and  O_31
REMARK   17  A    between atoms: C_32  and  O_33
REMARK   18  A    between atoms: C_34  and  O_35
REMARK   19  A    between atoms: C_36  and  O_37
REMARK   20  A    between atoms: O_37  and  C_38
REMARK   21  A    between atoms: C_38  and  C_40
REMARK   22  A    between atoms: C_41  and  C_42
REMARK   23  A    between atoms: C_44  and  O_45
REMARK   24  A    between atoms: C_46  and  O_47
REMARK   25  A    between atoms: C_50  and  O_51
REMARK   26  A    between atoms: C_52  and  O_53
REMARK   27  A    between atoms: C_54  and  O_55
REMARK                            x       y       z     vdW  Elec       q    Type
REMARK                         _______ _______ _______ _____ _____    ______ ____
ROOT
ATOM      1  C   UNL     1       4.172  -1.829  28.111  0.00  0.00    +0.000 C 
ATOM      2  C   UNL     1       2.687  -2.003  27.689  0.00  0.00    +0.000 C 
ATOM      3  C   UNL     1       1.987  -0.699  27.226  0.00  0.00    +0.000 C 
ATOM      4  O   UNL     1       2.832  -0.019  26.322  0.00  0.00    +0.000 OA
ATOM      5  C   UNL     1       4.032   0.430  26.952  0.00  0.00    +0.000 C 
ATOM      6  C   UNL     1       4.925  -0.781  27.266  0.00  0.00    +0.000 C 
ENDROOT
BRANCH   2   7
ATOM      7  O   UNL     1       1.948  -2.598  28.774  0.00  0.00    +0.000 OA
ATOM      8  H   UNL     1       2.419  -3.396  29.070  0.00  0.00    +0.000 HD
ENDBRANCH   2   7
BRANCH   6   9
ATOM      9  O   UNL     1       6.207  -0.426  27.856  0.00  0.00    +0.000 OA
BRANCH   9  10
ATOM     10  C   UNL     1       7.336  -0.622  27.131  0.00  0.00    +0.000 C 
ATOM     11  O   UNL     1       8.373   0.013  27.244  0.00  0.00    +0.000 OA
BRANCH  10  12
ATOM     12  C   UNL     1       7.198  -1.737  26.171  0.00  0.00    +0.000 C 
ATOM     13  C   UNL     1       7.670  -1.717  24.916  0.00  0.00    +0.000 C 
BRANCH  13  14
ATOM     14  C   UNL     1       7.441  -2.836  23.996  0.00  0.00    +0.000 A 
ATOM     15  C   UNL     1       6.568  -2.704  22.908  0.00  0.00    +0.000 A 
ATOM     16  C   UNL     1       6.364  -3.791  22.064  0.00  0.00    +0.000 A 
ATOM     17  C   UNL     1       7.017  -4.999  22.295  0.00  0.00    +0.000 A 
ATOM     18  C   UNL     1       7.882  -5.141  23.365  0.00  0.00    +0.000 A 
ATOM     19  C   UNL     1       8.093  -4.055  24.222  0.00  0.00    +0.000 A 
BRANCH  17  20
ATOM     20  O   UNL     1       6.805  -6.062  21.462  0.00  0.00    +0.000 OA
ATOM     21  H   UNL     1       5.919  -6.393  21.711  0.00  0.00    +0.000 HD
ENDBRANCH  17  20
BRANCH  16  22
ATOM     22  O   UNL     1       5.528  -3.722  20.983  0.00  0.00    +0.000 OA
ATOM     23  H   UNL     1       5.043  -4.564  20.918  0.00  0.00    +0.000 HD
ENDBRANCH  16  22
ENDBRANCH  13  14
ENDBRANCH  10  12
ENDBRANCH   9  10
ENDBRANCH   6   9
BRANCH   1  24
ATOM     24  O   UNL     1       4.951  -3.051  28.276  0.00  0.00    +0.000 OA
BRANCH  24  28
ATOM     25  C   UNL     1       3.531  -6.398  30.176  0.00  0.00    +0.000 C 
ATOM     26  C   UNL     1       4.546  -5.608  29.365  0.00  0.00    +0.000 C 
ATOM     27  O   UNL     1       3.894  -5.182  28.154  0.00  0.00    +0.000 OA
ATOM     28  C   UNL     1       4.657  -4.190  27.464  0.00  0.00    +0.000 C 
ATOM     29  C   UNL     1       5.952  -4.896  26.970  0.00  0.00    +0.000 C 
ATOM     30  C   UNL     1       6.730  -5.479  28.159  0.00  0.00    +0.000 C 
ATOM     31  C   UNL     1       5.837  -6.365  29.047  0.00  0.00    +0.000 C 
BRANCH  31  32
ATOM     32  O   UNL     1       6.547  -6.697  30.243  0.00  0.00    +0.000 OA
ATOM     33  H   UNL     1       6.163  -7.539  30.559  0.00  0.00    +0.000 HD
ENDBRANCH  31  32
BRANCH  30  34
ATOM     34  O   UNL     1       7.842  -6.275  27.709  0.00  0.00    +0.000 OA
ATOM     35  H   UNL     1       7.454  -7.019  27.204  0.00  0.00    +0.000 HD
ENDBRANCH  30  34
BRANCH  29  36
ATOM     36  O   UNL     1       5.636  -5.986  26.073  0.00  0.00    +0.000 OA
ATOM     37  H   UNL     1       5.949  -6.809  26.502  0.00  0.00    +0.000 HD
ENDBRANCH  29  36
ENDBRANCH  24  28
ENDBRANCH   1  24
BRANCH   5  38
ATOM     38  C   UNL     1       4.724   1.374  25.976  0.00  0.00    +0.000 C 
BRANCH  38  39
ATOM     39  O   UNL     1       5.017   0.662  24.767  0.00  0.00    +0.000 OA
BRANCH  39  40
ATOM     40  C   UNL     1       5.773   1.473  23.875  0.00  0.00    +0.000 C 
ATOM     41  O   UNL     1       7.012   1.748  24.514  0.00  0.00    +0.000 OA
ATOM     42  C   UNL     1       7.910   2.544  23.746  0.00  0.00    +0.000 C 
ATOM     43  C   UNL     1       7.285   3.902  23.420  0.00  0.00    +0.000 C 
ATOM     44  C   UNL     1       5.913   3.708  22.745  0.00  0.00    +0.000 C 
ATOM     45  C   UNL     1       5.007   2.781  23.578  0.00  0.00    +0.000 C 
BRANCH  44  46
ATOM     46  O   UNL     1       5.293   4.979  22.520  0.00  0.00    +0.000 OA
ATOM     47  H   UNL     1       5.965   5.675  22.634  0.00  0.00    +0.000 HD
ENDBRANCH  44  46
BRANCH  43  48
ATOM     48  O   UNL     1       8.174   4.659  22.598  0.00  0.00    +0.000 OA
ATOM     49  H   UNL     1       7.697   5.429  22.239  0.00  0.00    +0.000 HD
ENDBRANCH  43  48
BRANCH  45  50
ATOM     50  O   UNL     1       3.768   2.542  22.890  0.00  0.00    +0.000 OA
ATOM     51  H   UNL     1       3.035   2.856  23.444  0.00  0.00    +0.000 HD
ENDBRANCH  45  50
BRANCH  42  52
ATOM     52  C   UNL     1       9.165   2.683  24.615  0.00  0.00    +0.000 C 
BRANCH  52  53
ATOM     53  O   UNL     1       9.574   1.384  25.061  0.00  0.00    +0.000 OA
ATOM     54  H   UNL     1       8.748   0.918  25.290  0.00  0.00    +0.000 HD
ENDBRANCH  52  53
ENDBRANCH  42  52
ENDBRANCH  39  40
ENDBRANCH  38  39
ENDBRANCH   5  38
BRANCH   3  55
ATOM     55  O   UNL     1       0.778  -1.100  26.574  0.00  0.00    +0.000 OA
BRANCH  55  56
ATOM     56  C   UNL     1       0.554  -2.498  26.412  0.00  0.00    +0.000 C 
BRANCH  56  57
ATOM     57  C   UNL     1       0.678  -3.071  24.988  0.00  0.00    +0.000 C 
BRANCH  57  58
ATOM     58  C   UNL     1       1.383  -4.402  24.803  0.00  0.00    +0.000 A 
ATOM     59  C   UNL     1       2.229  -4.578  23.690  0.00  0.00    +0.000 A 
ATOM     60  C   UNL     1       2.961  -5.759  23.547  0.00  0.00    +0.000 A 
ATOM     61  C   UNL     1       2.874  -6.760  24.507  0.00  0.00    +0.000 A 
ATOM     62  C   UNL     1       2.051  -6.611  25.608  0.00  0.00    +0.000 A 
ATOM     63  C   UNL     1       1.310  -5.436  25.751  0.00  0.00    +0.000 A 
BRANCH  60  64
ATOM     64  O   UNL     1       3.789  -5.968  22.481  0.00  0.00    +0.000 OA
ATOM     65  H   UNL     1       3.648  -5.245  21.845  0.00  0.00    +0.000 HD
ENDBRANCH  60  64
BRANCH  61  66
ATOM     66  O   UNL     1       3.605  -7.904  24.378  0.00  0.00    +0.000 OA
ATOM     67  H   UNL     1       3.298  -8.294  23.535  0.00  0.00    +0.000 HD
ENDBRANCH  61  66
ENDBRANCH  57  58
ENDBRANCH  56  57
ENDBRANCH  55  56
ENDBRANCH   3  55
TORSDOF 26
ENDMDL
MODEL 8
REMARK VINA RESULT:      -6.7      2.085      9.765
REMARK  Name = 
REMARK  27 active torsions:
REMARK  status: ('A' for Active; 'I' for Inactive)
REMARK    1  A    between atoms: C_1  and  C_2
REMARK    2  A    between atoms: C_4  and  O_5
REMARK    3  A    between atoms: O_5  and  C_6
REMARK    4  A    between atoms: C_7  and  O_8
REMARK    5  A    between atoms: C_9  and  O_10
REMARK    6  A    between atoms: O_10  and  C_11
REMARK    7  A    between atoms: C_11  and  C_12
REMARK    8  A    between atoms: C_12  and  C_13
REMARK    9  A    between atoms: C_15  and  O_16
REMARK   10  A    between atoms: C_17  and  O_18
REMARK   11  A    between atoms: C_22  and  C_23
REMARK   12  A    between atoms: C_23  and  O_24
REMARK   13  A    between atoms: O_24  and  C_25
REMARK   14  A    between atoms: C_27  and  C_28
REMARK   15  A    between atoms: C_28  and  O_29
REMARK   16  A    between atoms: C_30  and  O_31
REMARK   17  A    between atoms: C_32  and  O_33
REMARK   18  A    between atoms: C_34  and  O_35
REMARK   19  A    between atoms: C_36  and  O_37
REMARK   20  A    between atoms: O_37  and  C_38
REMARK   21  A    between atoms: C_38  and  C_40
REMARK   22  A    between atoms: C_41  and  C_42
REMARK   23  A    between atoms: C_44  and  O_45
REMARK   24  A    between atoms: C_46  and  O_47
REMARK   25  A    between atoms: C_50  and  O_51
REMARK   26  A    between atoms: C_52  and  O_53
REMARK   27  A    between atoms: C_54  and  O_55
REMARK                            x       y       z     vdW  Elec       q    Type
REMARK                         _______ _______ _______ _____ _____    ______ ____
ROOT
ATOM      1  C   UNL     1       6.213  -1.390  24.325  0.00  0.00    +0.000 C 
ATOM      2  C   UNL     1       7.562  -1.270  23.564  0.00  0.00    +0.000 C 
ATOM      3  C   UNL     1       8.129   0.171  23.471  0.00  0.00    +0.000 C 
ATOM      4  O   UNL     1       8.058   0.777  24.745  0.00  0.00    +0.000 OA
ATOM      5  C   UNL     1       6.708   0.956  25.173  0.00  0.00    +0.000 C 
ATOM      6  C   UNL     1       6.097  -0.413  25.512  0.00  0.00    +0.000 C 
ENDROOT
BRANCH   2   7
ATOM      7  O   UNL     1       7.417  -1.827  22.243  0.00  0.00    +0.000 OA
ATOM      8  H   UNL     1       7.618  -2.777  22.282  0.00  0.00    +0.000 HD
ENDBRANCH   2   7
BRANCH   6   9
ATOM      9  O   UNL     1       4.735  -0.336  26.022  0.00  0.00    +0.000 OA
BRANCH   9  10
ATOM     10  C   UNL     1       4.515  -0.585  27.337  0.00  0.00    +0.000 C 
ATOM     11  O   UNL     1       4.536   0.246  28.231  0.00  0.00    +0.000 OA
BRANCH  10  12
ATOM     12  C   UNL     1       4.211  -2.008  27.594  0.00  0.00    +0.000 C 
ATOM     13  C   UNL     1       4.214  -2.574  28.810  0.00  0.00    +0.000 C 
BRANCH  13  14
ATOM     14  C   UNL     1       3.965  -4.009  28.984  0.00  0.00    +0.000 A 
ATOM     15  C   UNL     1       4.980  -4.865  29.432  0.00  0.00    +0.000 A 
ATOM     16  C   UNL     1       4.712  -6.223  29.573  0.00  0.00    +0.000 A 
ATOM     17  C   UNL     1       3.450  -6.730  29.271  0.00  0.00    +0.000 A 
ATOM     18  C   UNL     1       2.440  -5.894  28.830  0.00  0.00    +0.000 A 
ATOM     19  C   UNL     1       2.698  -4.528  28.682  0.00  0.00    +0.000 A 
BRANCH  17  20
ATOM     20  O   UNL     1       3.199  -8.067  29.408  0.00  0.00    +0.000 OA
ATOM     21  H   UNL     1       2.581  -8.122  30.163  0.00  0.00    +0.000 HD
ENDBRANCH  17  20
BRANCH  16  22
ATOM     22  O   UNL     1       5.659  -7.108  30.010  0.00  0.00    +0.000 OA
ATOM     23  H   UNL     1       6.030  -6.771  30.844  0.00  0.00    +0.000 HD
ENDBRANCH  16  22
ENDBRANCH  13  14
ENDBRANCH  10  12
ENDBRANCH   9  10
ENDBRANCH   6   9
BRANCH   1  24
ATOM     24  O   UNL     1       5.787  -2.737  24.689  0.00  0.00    +0.000 OA
BRANCH  24  28
ATOM     25  C   UNL     1       6.822  -5.420  21.764  0.00  0.00    +0.000 C 
ATOM     26  C   UNL     1       6.228  -5.012  23.103  0.00  0.00    +0.000 C 
ATOM     27  O   UNL     1       7.280  -4.403  23.875  0.00  0.00    +0.000 OA
ATOM     28  C   UNL     1       6.768  -3.721  25.021  0.00  0.00    +0.000 C 
ATOM     29  C   UNL     1       6.189  -4.816  25.963  0.00  0.00    +0.000 C 
ATOM     30  C   UNL     1       5.091  -5.615  25.244  0.00  0.00    +0.000 C 
ATOM     31  C   UNL     1       5.573  -6.152  23.884  0.00  0.00    +0.000 C 
BRANCH  31  32
ATOM     32  O   UNL     1       4.457  -6.691  23.171  0.00  0.00    +0.000 OA
ATOM     33  H   UNL     1       4.373  -7.619  23.465  0.00  0.00    +0.000 HD
ENDBRANCH  31  32
BRANCH  30  34
ATOM     34  O   UNL     1       4.661  -6.734  26.040  0.00  0.00    +0.000 OA
ATOM     35  H   UNL     1       4.210  -7.346  25.423  0.00  0.00    +0.000 HD
ENDBRANCH  30  34
BRANCH  29  36
ATOM     36  O   UNL     1       7.220  -5.748  26.366  0.00  0.00    +0.000 OA
ATOM     37  H   UNL     1       6.960  -6.628  26.021  0.00  0.00    +0.000 HD
ENDBRANCH  29  36
ENDBRANCH  24  28
ENDBRANCH   1  24
BRANCH   5  38
ATOM     38  C   UNL     1       6.745   1.853  26.404  0.00  0.00    +0.000 C 
BRANCH  38  39
ATOM     39  O   UNL     1       5.707   2.835  26.296  0.00  0.00    +0.000 OA
BRANCH  39  40
ATOM     40  C   UNL     1       5.245   2.937  24.954  0.00  0.00    +0.000 C 
ATOM     41  O   UNL     1       5.854   4.092  24.393  0.00  0.00    +0.000 OA
ATOM     42  C   UNL     1       5.512   4.340  23.032  0.00  0.00    +0.000 C 
ATOM     43  C   UNL     1       4.002   4.534  22.881  0.00  0.00    +0.000 C 
ATOM     44  C   UNL     1       3.247   3.337  23.490  0.00  0.00    +0.000 C 
ATOM     45  C   UNL     1       3.706   3.066  24.936  0.00  0.00    +0.000 C 
BRANCH  44  46
ATOM     46  O   UNL     1       1.835   3.563  23.425  0.00  0.00    +0.000 OA
ATOM     47  H   UNL     1       1.674   4.358  22.885  0.00  0.00    +0.000 HD
ENDBRANCH  44  46
BRANCH  43  48
ATOM     48  O   UNL     1       3.674   4.718  21.503  0.00  0.00    +0.000 OA
ATOM     49  H   UNL     1       2.745   4.460  21.361  0.00  0.00    +0.000 HD
ENDBRANCH  43  48
BRANCH  45  50
ATOM     50  O   UNL     1       3.056   1.893  25.455  0.00  0.00    +0.000 OA
ATOM     51  H   UNL     1       2.151   2.127  25.721  0.00  0.00    +0.000 HD
ENDBRANCH  45  50
BRANCH  42  52
ATOM     52  C   UNL     1       6.295   5.599  22.646  0.00  0.00    +0.000 C 
BRANCH  52  53
ATOM     53  O   UNL     1       7.251   5.266  21.631  0.00  0.00    +0.000 OA
ATOM     54  H   UNL     1       6.730   4.878  20.903  0.00  0.00    +0.000 HD
ENDBRANCH  52  53
ENDBRANCH  42  52
ENDBRANCH  39  40
ENDBRANCH  38  39
ENDBRANCH   5  38
BRANCH   3  55
ATOM     55  O   UNL     1       9.492   0.041  23.054  0.00  0.00    +0.000 OA
BRANCH  55  56
ATOM     56  C   UNL     1      10.418   1.014  23.529  0.00  0.00    +0.000 C 
BRANCH  56  57
ATOM     57  C   UNL     1      10.546   2.318  22.719  0.00  0.00    +0.000 C 
BRANCH  57  58
ATOM     58  C   UNL     1      10.352   3.639  23.441  0.00  0.00    +0.000 A 
ATOM     59  C   UNL     1       9.212   3.815  24.250  0.00  0.00    +0.000 A 
ATOM     60  C   UNL     1       9.058   4.985  24.998  0.00  0.00    +0.000 A 
ATOM     61  C   UNL     1      10.033   5.975  24.961  0.00  0.00    +0.000 A 
ATOM     62  C   UNL     1      11.160   5.826  24.175  0.00  0.00    +0.000 A 
ATOM     63  C   UNL     1      11.315   4.662  23.418  0.00  0.00    +0.000 A 
BRANCH  60  64
ATOM     64  O   UNL     1       7.966   5.193  25.792  0.00  0.00    +0.000 OA
ATOM     65  H   UNL     1       7.185   5.253  25.215  0.00  0.00    +0.000 HD
ENDBRANCH  60  64
BRANCH  61  66
ATOM     66  O   UNL     1       9.891   7.108  25.707  0.00  0.00    +0.000 OA
ATOM     67  H   UNL     1      10.806   7.418  25.854  0.00  0.00    +0.000 HD
ENDBRANCH  61  66
ENDBRANCH  57  58
ENDBRANCH  56  57
ENDBRANCH  55  56
ENDBRANCH   3  55
TORSDOF 26
ENDMDL
MODEL 9
REMARK VINA RESULT:      -6.7      2.577      8.492
REMARK  Name = 
REMARK  27 active torsions:
REMARK  status: ('A' for Active; 'I' for Inactive)
REMARK    1  A    between atoms: C_1  and  C_2
REMARK    2  A    between atoms: C_4  and  O_5
REMARK    3  A    between atoms: O_5  and  C_6
REMARK    4  A    between atoms: C_7  and  O_8
REMARK    5  A    between atoms: C_9  and  O_10
REMARK    6  A    between atoms: O_10  and  C_11
REMARK    7  A    between atoms: C_11  and  C_12
REMARK    8  A    between atoms: C_12  and  C_13
REMARK    9  A    between atoms: C_15  and  O_16
REMARK   10  A    between atoms: C_17  and  O_18
REMARK   11  A    between atoms: C_22  and  C_23
REMARK   12  A    between atoms: C_23  and  O_24
REMARK   13  A    between atoms: O_24  and  C_25
REMARK   14  A    between atoms: C_27  and  C_28
REMARK   15  A    between atoms: C_28  and  O_29
REMARK   16  A    between atoms: C_30  and  O_31
REMARK   17  A    between atoms: C_32  and  O_33
REMARK   18  A    between atoms: C_34  and  O_35
REMARK   19  A    between atoms: C_36  and  O_37
REMARK   20  A    between atoms: O_37  and  C_38
REMARK   21  A    between atoms: C_38  and  C_40
REMARK   22  A    between atoms: C_41  and  C_42
REMARK   23  A    between atoms: C_44  and  O_45
REMARK   24  A    between atoms: C_46  and  O_47
REMARK   25  A    between atoms: C_50  and  O_51
REMARK   26  A    between atoms: C_52  and  O_53
REMARK   27  A    between atoms: C_54  and  O_55
REMARK                            x       y       z     vdW  Elec       q    Type
REMARK                         _______ _______ _______ _____ _____    ______ ____
ROOT
ATOM      1  C   UNL     1       5.333  -2.416  26.026  0.00  0.00    +0.000 C 
ATOM      2  C   UNL     1       5.720  -2.713  24.551  0.00  0.00    +0.000 C 
ATOM      3  C   UNL     1       6.060  -1.459  23.704  0.00  0.00    +0.000 C 
ATOM      4  O   UNL     1       6.937  -0.631  24.439  0.00  0.00    +0.000 OA
ATOM      5  C   UNL     1       6.313  -0.106  25.611  0.00  0.00    +0.000 C 
ATOM      6  C   UNL     1       6.120  -1.237  26.634  0.00  0.00    +0.000 C 
ENDROOT
BRANCH   2   7
ATOM      7  O   UNL     1       4.660  -3.459  23.921  0.00  0.00    +0.000 OA
ATOM      8  H   UNL     1       5.033  -4.278  23.552  0.00  0.00    +0.000 HD
ENDBRANCH   2   7
BRANCH   6   9
ATOM      9  O   UNL     1       5.546  -0.793  27.896  0.00  0.00    +0.000 OA
BRANCH   9  10
ATOM     10  C   UNL     1       4.221  -0.505  27.945  0.00  0.00    +0.000 C 
ATOM     11  O   UNL     1       3.323  -1.316  28.109  0.00  0.00    +0.000 OA
BRANCH  10  12
ATOM     12  C   UNL     1       3.957   0.942  27.803  0.00  0.00    +0.000 C 
ATOM     13  C   UNL     1       3.207   1.481  26.830  0.00  0.00    +0.000 C 
BRANCH  13  14
ATOM     14  C   UNL     1       3.039   2.934  26.712  0.00  0.00    +0.000 A 
ATOM     15  C   UNL     1       2.121   3.479  25.804  0.00  0.00    +0.000 A 
ATOM     16  C   UNL     1       1.998   4.861  25.709  0.00  0.00    +0.000 A 
ATOM     17  C   UNL     1       2.779   5.698  26.503  0.00  0.00    +0.000 A 
ATOM     18  C   UNL     1       3.688   5.171  27.403  0.00  0.00    +0.000 A 
ATOM     19  C   UNL     1       3.821   3.783  27.506  0.00  0.00    +0.000 A 
BRANCH  17  20
ATOM     20  O   UNL     1       2.654   7.055  26.397  0.00  0.00    +0.000 OA
ATOM     21  H   UNL     1       2.391   7.345  27.293  0.00  0.00    +0.000 HD
ENDBRANCH  17  20
BRANCH  16  22
ATOM     22  O   UNL     1       1.116   5.453  24.846  0.00  0.00    +0.000 OA
ATOM     23  H   UNL     1       1.306   6.407  24.822  0.00  0.00    +0.000 HD
ENDBRANCH  16  22
ENDBRANCH  13  14
ENDBRANCH  10  12
ENDBRANCH   9  10
ENDBRANCH   6   9
BRANCH   1  24
ATOM     24  O   UNL     1       5.287  -3.559  26.932  0.00  0.00    +0.000 OA
BRANCH  24  28
ATOM     25  C   UNL     1       4.068  -7.013  25.084  0.00  0.00    +0.000 C 
ATOM     26  C   UNL     1       4.566  -6.189  26.262  0.00  0.00    +0.000 C 
ATOM     27  O   UNL     1       5.839  -5.627  25.889  0.00  0.00    +0.000 OA
ATOM     28  C   UNL     1       6.251  -4.605  26.797  0.00  0.00    +0.000 C 
ATOM     29  C   UNL     1       6.530  -5.309  28.156  0.00  0.00    +0.000 C 
ATOM     30  C   UNL     1       5.268  -6.030  28.654  0.00  0.00    +0.000 C 
ATOM     31  C   UNL     1       4.680  -6.961  27.577  0.00  0.00    +0.000 C 
BRANCH  31  32
ATOM     32  O   UNL     1       3.400  -7.430  28.011  0.00  0.00    +0.000 OA
ATOM     33  H   UNL     1       3.565  -8.281  28.462  0.00  0.00    +0.000 HD
ENDBRANCH  31  32
BRANCH  30  34
ATOM     34  O   UNL     1       5.551  -6.822  29.822  0.00  0.00    +0.000 OA
ATOM     35  H   UNL     1       6.525  -6.821  29.918  0.00  0.00    +0.000 HD
ENDBRANCH  30  34
BRANCH  29  36
ATOM     36  O   UNL     1       7.577  -6.298  28.020  0.00  0.00    +0.000 OA
ATOM     37  H   UNL     1       8.301  -5.879  27.511  0.00  0.00    +0.000 HD
ENDBRANCH  29  36
ENDBRANCH  24  28
ENDBRANCH   1  24
BRANCH   5  38
ATOM     38  C   UNL     1       7.235   0.973  26.163  0.00  0.00    +0.000 C 
BRANCH  38  39
ATOM     39  O   UNL     1       6.629   2.256  25.958  0.00  0.00    +0.000 OA
BRANCH  39  40
ATOM     40  C   UNL     1       6.912   2.744  24.651  0.00  0.00    +0.000 C 
ATOM     41  O   UNL     1       7.782   3.857  24.805  0.00  0.00    +0.000 OA
ATOM     42  C   UNL     1       8.186   4.465  23.582  0.00  0.00    +0.000 C 
ATOM     43  C   UNL     1       6.971   4.976  22.804  0.00  0.00    +0.000 C 
ATOM     44  C   UNL     1       5.947   3.840  22.611  0.00  0.00    +0.000 C 
ATOM     45  C   UNL     1       5.600   3.166  23.953  0.00  0.00    +0.000 C 
BRANCH  44  46
ATOM     46  O   UNL     1       4.775   4.341  21.961  0.00  0.00    +0.000 OA
ATOM     47  H   UNL     1       4.549   3.743  21.226  0.00  0.00    +0.000 HD
ENDBRANCH  44  46
BRANCH  43  48
ATOM     48  O   UNL     1       7.390   5.524  21.555  0.00  0.00    +0.000 OA
ATOM     49  H   UNL     1       7.779   4.816  21.011  0.00  0.00    +0.000 HD
ENDBRANCH  43  48
BRANCH  45  50
ATOM     50  O   UNL     1       4.715   2.055  23.740  0.00  0.00    +0.000 OA
ATOM     51  H   UNL     1       4.611   1.913  22.784  0.00  0.00    +0.000 HD
ENDBRANCH  45  50
BRANCH  42  52
ATOM     52  C   UNL     1       9.124   5.605  23.992  0.00  0.00    +0.000 C 
BRANCH  52  53
ATOM     53  O   UNL     1      10.215   5.674  23.064  0.00  0.00    +0.000 OA
ATOM     54  H   UNL     1      10.351   4.757  22.758  0.00  0.00    +0.000 HD
ENDBRANCH  52  53
ENDBRANCH  42  52
ENDBRANCH  39  40
ENDBRANCH  38  39
ENDBRANCH   5  38
BRANCH   3  55
ATOM     55  O   UNL     1       6.702  -1.937  22.518  0.00  0.00    +0.000 OA
BRANCH  55  56
ATOM     56  C   UNL     1       7.762  -2.875  22.678  0.00  0.00    +0.000 C 
BRANCH  56  57
ATOM     57  C   UNL     1       9.165  -2.437  22.219  0.00  0.00    +0.000 C 
BRANCH  57  58
ATOM     58  C   UNL     1       9.694  -1.094  22.688  0.00  0.00    +0.000 A 
ATOM     59  C   UNL     1       9.606   0.015  21.823  0.00  0.00    +0.000 A 
ATOM     60  C   UNL     1       9.998   1.281  22.265  0.00  0.00    +0.000 A 
ATOM     61  C   UNL     1      10.463   1.458  23.563  0.00  0.00    +0.000 A 
ATOM     62  C   UNL     1      10.558   0.386  24.430  0.00  0.00    +0.000 A 
ATOM     63  C   UNL     1      10.175  -0.883  23.991  0.00  0.00    +0.000 A 
BRANCH  60  64
ATOM     64  O   UNL     1       9.931   2.379  21.455  0.00  0.00    +0.000 OA
ATOM     65  H   UNL     1      10.836   2.601  21.177  0.00  0.00    +0.000 HD
ENDBRANCH  60  64
BRANCH  61  66
ATOM     66  O   UNL     1      10.827   2.697  24.000  0.00  0.00    +0.000 OA
ATOM     67  H   UNL     1      11.436   2.524  24.744  0.00  0.00    +0.000 HD
ENDBRANCH  61  66
ENDBRANCH  57  58
ENDBRANCH  56  57
ENDBRANCH  55  56
ENDBRANCH   3  55
TORSDOF 26
ENDMDL
