MODEL 1
REMARK VINA RESULT:      -7.1      0.000      0.000
REMARK  Name = 
REMARK  6 active torsions:
REMARK  status: ('A' for Active; 'I' for Inactive)
REMARK    1  A    between atoms: O_1  and  C_2
REMARK    2  A    between atoms: C_5  and  O_6
REMARK    3  A    between atoms: C_8  and  O_9
REMARK    4  A    between atoms: C_13  and  C_14
REMARK    5  A    between atoms: C_16  and  O_17
REMARK    6  A    between atoms: C_18  and  O_19
REMARK                            x       y       z     vdW  Elec       q    Type
REMARK                         _______ _______ _______ _____ _____    ______ ____
ROOT
ATOM      1  C   UNL     1       7.721  -4.694  23.764  0.00  0.00    +0.000 C 
ATOM      2  C   UNL     1       8.119  -3.646  22.723  0.00  0.00    +0.000 C 
ATOM      3  C   UNL     1       8.768  -2.446  23.359  0.00  0.00    +0.000 A 
ATOM      4  C   UNL     1       9.498  -1.511  22.607  0.00  0.00    +0.000 A 
ATOM      5  C   UNL     1      10.126  -0.424  23.212  0.00  0.00    +0.000 A 
ATOM      6  C   UNL     1      10.021  -0.257  24.586  0.00  0.00    +0.000 A 
ATOM      7  C   UNL     1       9.285  -1.150  25.354  0.00  0.00    +0.000 A 
ATOM      8  C   UNL     1       8.645  -2.230  24.741  0.00  0.00    +0.000 A 
ATOM      9  O   UNL     1       7.936  -3.049  25.584  0.00  0.00    +0.000 OA
ATOM     10  C   UNL     1       7.034  -3.955  24.927  0.00  0.00    +0.000 C 
ENDROOT
BRANCH  10  11
ATOM     11  C   UNL     1       6.408  -4.906  25.938  0.00  0.00    +0.000 A 
ATOM     12  C   UNL     1       6.719  -4.834  27.306  0.00  0.00    +0.000 A 
ATOM     13  C   UNL     1       6.095  -5.697  28.203  0.00  0.00    +0.000 A 
ATOM     14  C   UNL     1       5.174  -6.640  27.755  0.00  0.00    +0.000 A 
ATOM     15  C   UNL     1       4.872  -6.747  26.406  0.00  0.00    +0.000 A 
ATOM     16  C   UNL     1       5.491  -5.885  25.499  0.00  0.00    +0.000 A 
BRANCH  13  17
ATOM     17  O   UNL     1       6.351  -5.651  29.546  0.00  0.00    +0.000 OA
ATOM     18  H   UNL     1       6.572  -6.556  29.831  0.00  0.00    +0.000 HD
ENDBRANCH  13  17
BRANCH  14  19
ATOM     19  O   UNL     1       4.556  -7.469  28.646  0.00  0.00    +0.000 OA
ATOM     20  H   UNL     1       3.652  -7.106  28.726  0.00  0.00    +0.000 HD
ENDBRANCH  14  19
ENDBRANCH  10  11
BRANCH   4  21
ATOM     21  O   UNL     1       9.648  -1.595  21.250  0.00  0.00    +0.000 OA
ATOM     22  H   UNL     1       9.601  -0.712  20.853  0.00  0.00    +0.000 HD
ENDBRANCH   4  21
BRANCH   6  23
ATOM     23  O   UNL     1      10.628   0.787  25.220  0.00  0.00    +0.000 OA
ATOM     24  H   UNL     1      11.519   0.901  24.845  0.00  0.00    +0.000 HD
ENDBRANCH   6  23
BRANCH   1  25
ATOM     25  O   UNL     1       8.880  -5.418  24.200  0.00  0.00    +0.000 OA
ATOM     26  H   UNL     1       8.638  -5.948  24.978  0.00  0.00    +0.000 HD
ENDBRANCH   1  25
TORSDOF 6
ENDMDL
MODEL 2
REMARK VINA RESULT:      -7.0      2.829      4.448
REMARK  Name = 
REMARK  6 active torsions:
REMARK  status: ('A' for Active; 'I' for Inactive)
REMARK    1  A    between atoms: O_1  and  C_2
REMARK    2  A    between atoms: C_5  and  O_6
REMARK    3  A    between atoms: C_8  and  O_9
REMARK    4  A    between atoms: C_13  and  C_14
REMARK    5  A    between atoms: C_16  and  O_17
REMARK    6  A    between atoms: C_18  and  O_19
REMARK                            x       y       z     vdW  Elec       q    Type
REMARK                         _______ _______ _______ _____ _____    ______ ____
ROOT
ATOM      1  C   UNL     1      10.092  -0.409  24.911  0.00  0.00    +0.000 C 
ATOM      2  C   UNL     1      10.429   0.753  23.975  0.00  0.00    +0.000 C 
ATOM      3  C   UNL     1       9.188   1.404  23.424  0.00  0.00    +0.000 A 
ATOM      4  C   UNL     1       9.223   2.667  22.811  0.00  0.00    +0.000 A 
ATOM      5  C   UNL     1       8.062   3.276  22.338  0.00  0.00    +0.000 A 
ATOM      6  C   UNL     1       6.847   2.616  22.467  0.00  0.00    +0.000 A 
ATOM      7  C   UNL     1       6.784   1.355  23.045  0.00  0.00    +0.000 A 
ATOM      8  C   UNL     1       7.952   0.743  23.505  0.00  0.00    +0.000 A 
ATOM      9  O   UNL     1       7.786  -0.506  24.052  0.00  0.00    +0.000 OA
ATOM     10  C   UNL     1       9.000  -1.254  24.229  0.00  0.00    +0.000 C 
ENDROOT
BRANCH  10  11
ATOM     11  C   UNL     1       8.719  -2.556  24.966  0.00  0.00    +0.000 A 
ATOM     12  C   UNL     1       9.456  -3.722  24.704  0.00  0.00    +0.000 A 
ATOM     13  C   UNL     1       9.194  -4.884  25.426  0.00  0.00    +0.000 A 
ATOM     14  C   UNL     1       8.197  -4.902  26.398  0.00  0.00    +0.000 A 
ATOM     15  C   UNL     1       7.438  -3.771  26.654  0.00  0.00    +0.000 A 
ATOM     16  C   UNL     1       7.696  -2.601  25.936  0.00  0.00    +0.000 A 
BRANCH  13  17
ATOM     17  O   UNL     1       9.898  -6.038  25.220  0.00  0.00    +0.000 OA
ATOM     18  H   UNL     1       9.474  -6.510  24.481  0.00  0.00    +0.000 HD
ENDBRANCH  13  17
BRANCH  14  19
ATOM     19  O   UNL     1       7.960  -6.042  27.112  0.00  0.00    +0.000 OA
ATOM     20  H   UNL     1       7.626  -5.722  27.972  0.00  0.00    +0.000 HD
ENDBRANCH  14  19
ENDBRANCH  10  11
BRANCH   4  21
ATOM     21  O   UNL     1      10.375   3.383  22.636  0.00  0.00    +0.000 OA
ATOM     22  H   UNL     1      11.116   2.936  23.070  0.00  0.00    +0.000 HD
ENDBRANCH   4  21
BRANCH   6  23
ATOM     23  O   UNL     1       5.686   3.180  22.027  0.00  0.00    +0.000 OA
ATOM     24  H   UNL     1       5.368   2.675  21.259  0.00  0.00    +0.000 HD
ENDBRANCH   6  23
BRANCH   1  25
ATOM     25  O   UNL     1       9.661   0.095  26.184  0.00  0.00    +0.000 OA
ATOM     26  H   UNL     1       9.873  -0.565  26.865  0.00  0.00    +0.000 HD
ENDBRANCH   1  25
TORSDOF 6
ENDMDL
MODEL 3
REMARK VINA RESULT:      -7.0      1.967      7.063
REMARK  Name = 
REMARK  6 active torsions:
REMARK  status: ('A' for Active; 'I' for Inactive)
REMARK    1  A    between atoms: O_1  and  C_2
REMARK    2  A    between atoms: C_5  and  O_6
REMARK    3  A    between atoms: C_8  and  O_9
REMARK    4  A    between atoms: C_13  and  C_14
REMARK    5  A    between atoms: C_16  and  O_17
REMARK    6  A    between atoms: C_18  and  O_19
REMARK                            x       y       z     vdW  Elec       q    Type
REMARK                         _______ _______ _______ _____ _____    ______ ____
ROOT
ATOM      1  C   UNL     1       7.067  -2.262  22.327  0.00  0.00    +0.000 C 
ATOM      2  C   UNL     1       6.498  -3.668  22.130  0.00  0.00    +0.000 C 
ATOM      3  C   UNL     1       6.388  -4.413  23.433  0.00  0.00    +0.000 A 
ATOM      4  C   UNL     1       5.612  -5.578  23.559  0.00  0.00    +0.000 A 
ATOM      5  C   UNL     1       5.488  -6.238  24.780  0.00  0.00    +0.000 A 
ATOM      6  C   UNL     1       6.152  -5.741  25.893  0.00  0.00    +0.000 A 
ATOM      7  C   UNL     1       6.947  -4.606  25.794  0.00  0.00    +0.000 A 
ATOM      8  C   UNL     1       7.080  -3.955  24.566  0.00  0.00    +0.000 A 
ATOM      9  O   UNL     1       7.894  -2.850  24.571  0.00  0.00    +0.000 OA
ATOM     10  C   UNL     1       8.279  -2.378  23.269  0.00  0.00    +0.000 C 
ENDROOT
BRANCH  10  11
ATOM     11  C   UNL     1       9.060  -1.076  23.385  0.00  0.00    +0.000 A 
ATOM     12  C   UNL     1       9.157  -0.179  22.309  0.00  0.00    +0.000 A 
ATOM     13  C   UNL     1       9.848   1.019  22.467  0.00  0.00    +0.000 A 
ATOM     14  C   UNL     1      10.456   1.330  23.681  0.00  0.00    +0.000 A 
ATOM     15  C   UNL     1      10.396   0.448  24.748  0.00  0.00    +0.000 A 
ATOM     16  C   UNL     1       9.703  -0.755  24.599  0.00  0.00    +0.000 A 
BRANCH  13  17
ATOM     17  O   UNL     1       9.954   1.932  21.454  0.00  0.00    +0.000 OA
ATOM     18  H   UNL     1       9.169   2.507  21.498  0.00  0.00    +0.000 HD
ENDBRANCH  13  17
BRANCH  14  19
ATOM     19  O   UNL     1      11.117   2.516  23.830  0.00  0.00    +0.000 OA
ATOM     20  H   UNL     1      12.039   2.255  24.022  0.00  0.00    +0.000 HD
ENDBRANCH  14  19
ENDBRANCH  10  11
BRANCH   4  21
ATOM     21  O   UNL     1       4.931  -6.140  22.515  0.00  0.00    +0.000 OA
ATOM     22  H   UNL     1       4.456  -5.458  22.018  0.00  0.00    +0.000 HD
ENDBRANCH   4  21
BRANCH   6  23
ATOM     23  O   UNL     1       6.049  -6.350  27.109  0.00  0.00    +0.000 OA
ATOM     24  H   UNL     1       5.359  -5.898  27.624  0.00  0.00    +0.000 HD
ENDBRANCH   6  23
BRANCH   1  25
ATOM     25  O   UNL     1       6.056  -1.394  22.862  0.00  0.00    +0.000 OA
ATOM     26  H   UNL     1       6.491  -0.615  23.247  0.00  0.00    +0.000 HD
ENDBRANCH   1  25
TORSDOF 6
ENDMDL
MODEL 4
REMARK VINA RESULT:      -7.0      1.661      7.053
REMARK  Name = 
REMARK  6 active torsions:
REMARK  status: ('A' for Active; 'I' for Inactive)
REMARK    1  A    between atoms: O_1  and  C_2
REMARK    2  A    between atoms: C_5  and  O_6
REMARK    3  A    between atoms: C_8  and  O_9
REMARK    4  A    between atoms: C_13  and  C_14
REMARK    5  A    between atoms: C_16  and  O_17
REMARK    6  A    between atoms: C_18  and  O_19
REMARK                            x       y       z     vdW  Elec       q    Type
REMARK                         _______ _______ _______ _____ _____    ______ ____
ROOT
ATOM      1  C   UNL     1       8.117  -4.425  26.646  0.00  0.00    +0.000 C 
ATOM      2  C   UNL     1       7.001  -5.249  27.290  0.00  0.00    +0.000 C 
ATOM      3  C   UNL     1       6.018  -5.752  26.266  0.00  0.00    +0.000 A 
ATOM      4  C   UNL     1       5.104  -6.779  26.557  0.00  0.00    +0.000 A 
ATOM      5  C   UNL     1       4.224  -7.261  25.590  0.00  0.00    +0.000 A 
ATOM      6  C   UNL     1       4.244  -6.710  24.316  0.00  0.00    +0.000 A 
ATOM      7  C   UNL     1       5.118  -5.677  24.006  0.00  0.00    +0.000 A 
ATOM      8  C   UNL     1       5.989  -5.186  24.981  0.00  0.00    +0.000 A 
ATOM      9  O   UNL     1       6.806  -4.160  24.578  0.00  0.00    +0.000 OA
ATOM     10  C   UNL     1       7.461  -3.455  25.646  0.00  0.00    +0.000 C 
ENDROOT
BRANCH  10  11
ATOM     11  C   UNL     1       8.444  -2.436  25.086  0.00  0.00    +0.000 A 
ATOM     12  C   UNL     1       9.059  -2.618  23.837  0.00  0.00    +0.000 A 
ATOM     13  C   UNL     1       9.922  -1.644  23.342  0.00  0.00    +0.000 A 
ATOM     14  C   UNL     1      10.192  -0.496  24.082  0.00  0.00    +0.000 A 
ATOM     15  C   UNL     1       9.618  -0.308  25.329  0.00  0.00    +0.000 A 
ATOM     16  C   UNL     1       8.749  -1.278  25.833  0.00  0.00    +0.000 A 
BRANCH  13  17
ATOM     17  O   UNL     1      10.530  -1.768  22.123  0.00  0.00    +0.000 OA
ATOM     18  H   UNL     1      11.399  -2.181  22.271  0.00  0.00    +0.000 HD
ENDBRANCH  13  17
BRANCH  14  19
ATOM     19  O   UNL     1      11.027   0.460  23.579  0.00  0.00    +0.000 OA
ATOM     20  H   UNL     1      10.960   0.353  22.610  0.00  0.00    +0.000 HD
ENDBRANCH  14  19
ENDBRANCH  10  11
BRANCH   4  21
ATOM     21  O   UNL     1       5.011  -7.373  27.785  0.00  0.00    +0.000 OA
ATOM     22  H   UNL     1       4.777  -8.308  27.688  0.00  0.00    +0.000 HD
ENDBRANCH   4  21
BRANCH   6  23
ATOM     23  O   UNL     1       3.407  -7.160  23.337  0.00  0.00    +0.000 OA
ATOM     24  H   UNL     1       2.712  -7.701  23.750  0.00  0.00    +0.000 HD
ENDBRANCH   6  23
BRANCH   1  25
ATOM     25  O   UNL     1       9.064  -5.294  26.006  0.00  0.00    +0.000 OA
ATOM     26  H   UNL     1       9.623  -5.697  26.691  0.00  0.00    +0.000 HD
ENDBRANCH   1  25
TORSDOF 6
ENDMDL
MODEL 5
REMARK VINA RESULT:      -7.0      0.635      1.489
REMARK  Name = 
REMARK  6 active torsions:
REMARK  status: ('A' for Active; 'I' for Inactive)
REMARK    1  A    between atoms: O_1  and  C_2
REMARK    2  A    between atoms: C_5  and  O_6
REMARK    3  A    between atoms: C_8  and  O_9
REMARK    4  A    between atoms: C_13  and  C_14
REMARK    5  A    between atoms: C_16  and  O_17
REMARK    6  A    between atoms: C_18  and  O_19
REMARK                            x       y       z     vdW  Elec       q    Type
REMARK                         _______ _______ _______ _____ _____    ______ ____
ROOT
ATOM      1  C   UNL     1       7.522  -4.481  23.589  0.00  0.00    +0.000 C 
ATOM      2  C   UNL     1       7.908  -3.388  22.591  0.00  0.00    +0.000 C 
ATOM      3  C   UNL     1       8.642  -2.257  23.259  0.00  0.00    +0.000 A 
ATOM      4  C   UNL     1       9.370  -1.308  22.522  0.00  0.00    +0.000 A 
ATOM      5  C   UNL     1      10.077  -0.286  23.154  0.00  0.00    +0.000 A 
ATOM      6  C   UNL     1      10.054  -0.199  24.539  0.00  0.00    +0.000 A 
ATOM      7  C   UNL     1       9.323  -1.107  25.293  0.00  0.00    +0.000 A 
ATOM      8  C   UNL     1       8.605  -2.121  24.656  0.00  0.00    +0.000 A 
ATOM      9  O   UNL     1       7.908  -2.962  25.488  0.00  0.00    +0.000 OA
ATOM     10  C   UNL     1       6.934  -3.789  24.832  0.00  0.00    +0.000 C 
ENDROOT
BRANCH  10  11
ATOM     11  C   UNL     1       6.323  -4.775  25.819  0.00  0.00    +0.000 A 
ATOM     12  C   UNL     1       5.359  -5.714  25.418  0.00  0.00    +0.000 A 
ATOM     13  C   UNL     1       4.852  -6.624  26.342  0.00  0.00    +0.000 A 
ATOM     14  C   UNL     1       5.284  -6.601  27.666  0.00  0.00    +0.000 A 
ATOM     15  C   UNL     1       6.213  -5.665  28.091  0.00  0.00    +0.000 A 
ATOM     16  C   UNL     1       6.729  -4.751  27.170  0.00  0.00    +0.000 A 
BRANCH  13  17
ATOM     17  O   UNL     1       3.927  -7.569  25.994  0.00  0.00    +0.000 OA
ATOM     18  H   UNL     1       3.251  -7.586  26.695  0.00  0.00    +0.000 HD
ENDBRANCH  13  17
BRANCH  14  19
ATOM     19  O   UNL     1       4.792  -7.509  28.560  0.00  0.00    +0.000 OA
ATOM     20  H   UNL     1       3.842  -7.573  28.340  0.00  0.00    +0.000 HD
ENDBRANCH  14  19
ENDBRANCH  10  11
BRANCH   4  21
ATOM     21  O   UNL     1       9.441  -1.313  21.156  0.00  0.00    +0.000 OA
ATOM     22  H   UNL     1       8.785  -1.925  20.790  0.00  0.00    +0.000 HD
ENDBRANCH   4  21
BRANCH   6  23
ATOM     23  O   UNL     1      10.740   0.779  25.198  0.00  0.00    +0.000 OA
ATOM     24  H   UNL     1      10.159   1.160  25.878  0.00  0.00    +0.000 HD
ENDBRANCH   6  23
BRANCH   1  25
ATOM     25  O   UNL     1       8.672  -5.277  23.914  0.00  0.00    +0.000 OA
ATOM     26  H   UNL     1       9.320  -5.191  23.196  0.00  0.00    +0.000 HD
ENDBRANCH   1  25
TORSDOF 6
ENDMDL
MODEL 6
REMARK VINA RESULT:      -6.9      2.328      7.338
REMARK  Name = 
REMARK  6 active torsions:
REMARK  status: ('A' for Active; 'I' for Inactive)
REMARK    1  A    between atoms: O_1  and  C_2
REMARK    2  A    between atoms: C_5  and  O_6
REMARK    3  A    between atoms: C_8  and  O_9
REMARK    4  A    between atoms: C_13  and  C_14
REMARK    5  A    between atoms: C_16  and  O_17
REMARK    6  A    between atoms: C_18  and  O_19
REMARK                            x       y       z     vdW  Elec       q    Type
REMARK                         _______ _______ _______ _____ _____    ______ ____
ROOT
ATOM      1  C   UNL     1       9.098  -2.624  25.060  0.00  0.00    +0.000 C 
ATOM      2  C   UNL     1       8.262  -3.678  25.788  0.00  0.00    +0.000 C 
ATOM      3  C   UNL     1       7.016  -4.029  25.020  0.00  0.00    +0.000 A 
ATOM      4  C   UNL     1       6.264  -5.179  25.311  0.00  0.00    +0.000 A 
ATOM      5  C   UNL     1       5.132  -5.513  24.569  0.00  0.00    +0.000 A 
ATOM      6  C   UNL     1       4.734  -4.687  23.527  0.00  0.00    +0.000 A 
ATOM      7  C   UNL     1       5.442  -3.530  23.231  0.00  0.00    +0.000 A 
ATOM      8  C   UNL     1       6.567  -3.191  23.986  0.00  0.00    +0.000 A 
ATOM      9  O   UNL     1       7.192  -2.025  23.621  0.00  0.00    +0.000 OA
ATOM     10  C   UNL     1       8.138  -1.521  24.578  0.00  0.00    +0.000 C 
ENDROOT
BRANCH  10  11
ATOM     11  C   UNL     1       8.869  -0.310  24.016  0.00  0.00    +0.000 A 
ATOM     12  C   UNL     1       8.526   0.244  22.772  0.00  0.00    +0.000 A 
ATOM     13  C   UNL     1       9.193   1.376  22.311  0.00  0.00    +0.000 A 
ATOM     14  C   UNL     1      10.208   1.956  23.066  0.00  0.00    +0.000 A 
ATOM     15  C   UNL     1      10.583   1.410  24.284  0.00  0.00    +0.000 A 
ATOM     16  C   UNL     1       9.918   0.276  24.756  0.00  0.00    +0.000 A 
BRANCH  13  17
ATOM     17  O   UNL     1       8.880   1.962  21.115  0.00  0.00    +0.000 OA
ATOM     18  H   UNL     1       7.910   1.953  21.031  0.00  0.00    +0.000 HD
ENDBRANCH  13  17
BRANCH  14  19
ATOM     19  O   UNL     1      10.845   3.075  22.611  0.00  0.00    +0.000 OA
ATOM     20  H   UNL     1      11.792   2.837  22.628  0.00  0.00    +0.000 HD
ENDBRANCH  14  19
ENDBRANCH  10  11
BRANCH   4  21
ATOM     21  O   UNL     1       6.579  -6.044  26.323  0.00  0.00    +0.000 OA
ATOM     22  H   UNL     1       5.979  -5.914  27.073  0.00  0.00    +0.000 HD
ENDBRANCH   4  21
BRANCH   6  23
ATOM     23  O   UNL     1       3.639  -4.982  22.769  0.00  0.00    +0.000 OA
ATOM     24  H   UNL     1       3.174  -5.733  23.177  0.00  0.00    +0.000 HD
ENDBRANCH   6  23
BRANCH   1  25
ATOM     25  O   UNL     1       9.810  -3.227  23.970  0.00  0.00    +0.000 OA
ATOM     26  H   UNL     1      10.741  -2.951  24.019  0.00  0.00    +0.000 HD
ENDBRANCH   1  25
TORSDOF 6
ENDMDL
MODEL 7
REMARK VINA RESULT:      -6.8      1.355      2.774
REMARK  Name = 
REMARK  6 active torsions:
REMARK  status: ('A' for Active; 'I' for Inactive)
REMARK    1  A    between atoms: O_1  and  C_2
REMARK    2  A    between atoms: C_5  and  O_6
REMARK    3  A    between atoms: C_8  and  O_9
REMARK    4  A    between atoms: C_13  and  C_14
REMARK    5  A    between atoms: C_16  and  O_17
REMARK    6  A    between atoms: C_18  and  O_19
REMARK                            x       y       z     vdW  Elec       q    Type
REMARK                         _______ _______ _______ _____ _____    ______ ____
ROOT
ATOM      1  C   UNL     1       7.088  -2.943  26.349  0.00  0.00    +0.000 C 
ATOM      2  C   UNL     1       8.304  -2.016  26.348  0.00  0.00    +0.000 C 
ATOM      3  C   UNL     1       8.756  -1.690  24.950  0.00  0.00    +0.000 A 
ATOM      4  C   UNL     1       9.632  -0.624  24.683  0.00  0.00    +0.000 A 
ATOM      5  C   UNL     1      10.014  -0.309  23.380  0.00  0.00    +0.000 A 
ATOM      6  C   UNL     1       9.527  -1.069  22.325  0.00  0.00    +0.000 A 
ATOM      7  C   UNL     1       8.680  -2.144  22.560  0.00  0.00    +0.000 A 
ATOM      8  C   UNL     1       8.311  -2.466  23.868  0.00  0.00    +0.000 A 
ATOM      9  O   UNL     1       7.478  -3.550  23.995  0.00  0.00    +0.000 OA
ATOM     10  C   UNL     1       7.358  -4.066  25.331  0.00  0.00    +0.000 C 
ENDROOT
BRANCH  10  11
ATOM     11  C   UNL     1       6.312  -5.170  25.382  0.00  0.00    +0.000 A 
ATOM     12  C   UNL     1       5.929  -5.765  26.595  0.00  0.00    +0.000 A 
ATOM     13  C   UNL     1       4.941  -6.745  26.604  0.00  0.00    +0.000 A 
ATOM     14  C   UNL     1       4.336  -7.151  25.418  0.00  0.00    +0.000 A 
ATOM     15  C   UNL     1       4.717  -6.598  24.205  0.00  0.00    +0.000 A 
ATOM     16  C   UNL     1       5.706  -5.612  24.187  0.00  0.00    +0.000 A 
BRANCH  13  17
ATOM     17  O   UNL     1       4.522  -7.339  27.763  0.00  0.00    +0.000 OA
ATOM     18  H   UNL     1       3.593  -7.602  27.636  0.00  0.00    +0.000 HD
ENDBRANCH  13  17
BRANCH  14  19
ATOM     19  O   UNL     1       3.356  -8.102  25.441  0.00  0.00    +0.000 OA
ATOM     20  H   UNL     1       2.957  -8.015  26.329  0.00  0.00    +0.000 HD
ENDBRANCH  14  19
ENDBRANCH  10  11
BRANCH   4  21
ATOM     21  O   UNL     1      10.164   0.170  25.660  0.00  0.00    +0.000 OA
ATOM     22  H   UNL     1      10.750  -0.348  26.231  0.00  0.00    +0.000 HD
ENDBRANCH   4  21
BRANCH   6  23
ATOM     23  O   UNL     1       9.868  -0.788  21.035  0.00  0.00    +0.000 OA
ATOM     24  H   UNL     1      10.833  -0.868  20.945  0.00  0.00    +0.000 HD
ENDBRANCH   6  23
BRANCH   1  25
ATOM     25  O   UNL     1       5.903  -2.200  26.024  0.00  0.00    +0.000 OA
ATOM     26  H   UNL     1       5.690  -2.353  25.088  0.00  0.00    +0.000 HD
ENDBRANCH   1  25
TORSDOF 6
ENDMDL
MODEL 8
REMARK VINA RESULT:      -6.8      2.628      3.707
REMARK  Name = 
REMARK  6 active torsions:
REMARK  status: ('A' for Active; 'I' for Inactive)
REMARK    1  A    between atoms: O_1  and  C_2
REMARK    2  A    between atoms: C_5  and  O_6
REMARK    3  A    between atoms: C_8  and  O_9
REMARK    4  A    between atoms: C_13  and  C_14
REMARK    5  A    between atoms: C_16  and  O_17
REMARK    6  A    between atoms: C_18  and  O_19
REMARK                            x       y       z     vdW  Elec       q    Type
REMARK                         _______ _______ _______ _____ _____    ______ ____
ROOT
ATOM      1  C   UNL     1       8.997  -1.858  21.907  0.00  0.00    +0.000 C 
ATOM      2  C   UNL     1       9.383  -0.428  21.523  0.00  0.00    +0.000 C 
ATOM      3  C   UNL     1       9.092   0.545  22.634  0.00  0.00    +0.000 A 
ATOM      4  C   UNL     1       9.643   1.838  22.651  0.00  0.00    +0.000 A 
ATOM      5  C   UNL     1       9.396   2.718  23.703  0.00  0.00    +0.000 A 
ATOM      6  C   UNL     1       8.582   2.312  24.752  0.00  0.00    +0.000 A 
ATOM      7  C   UNL     1       8.003   1.050  24.751  0.00  0.00    +0.000 A 
ATOM      8  C   UNL     1       8.241   0.177  23.688  0.00  0.00    +0.000 A 
ATOM      9  O   UNL     1       7.616  -1.043  23.777  0.00  0.00    +0.000 OA
ATOM     10  C   UNL     1       7.602  -1.804  22.558  0.00  0.00    +0.000 C 
ENDROOT
BRANCH  10  11
ATOM     11  C   UNL     1       7.014  -3.186  22.801  0.00  0.00    +0.000 A 
ATOM     12  C   UNL     1       7.012  -3.770  24.079  0.00  0.00    +0.000 A 
ATOM     13  C   UNL     1       6.429  -5.020  24.268  0.00  0.00    +0.000 A 
ATOM     14  C   UNL     1       5.859  -5.704  23.198  0.00  0.00    +0.000 A 
ATOM     15  C   UNL     1       5.874  -5.160  21.923  0.00  0.00    +0.000 A 
ATOM     16  C   UNL     1       6.454  -3.905  21.724  0.00  0.00    +0.000 A 
BRANCH  13  17
ATOM     17  O   UNL     1       6.387  -5.619  25.497  0.00  0.00    +0.000 OA
ATOM     18  H   UNL     1       6.361  -6.582  25.350  0.00  0.00    +0.000 HD
ENDBRANCH  13  17
BRANCH  14  19
ATOM     19  O   UNL     1       5.276  -6.922  23.398  0.00  0.00    +0.000 OA
ATOM     20  H   UNL     1       5.082  -7.247  22.497  0.00  0.00    +0.000 HD
ENDBRANCH  14  19
ENDBRANCH  10  11
BRANCH   4  21
ATOM     21  O   UNL     1      10.448   2.322  21.657  0.00  0.00    +0.000 OA
ATOM     22  H   UNL     1      11.344   1.963  21.747  0.00  0.00    +0.000 HD
ENDBRANCH   4  21
BRANCH   6  23
ATOM     23  O   UNL     1       8.324   3.138  25.806  0.00  0.00    +0.000 OA
ATOM     24  H   UNL     1       9.049   3.781  25.881  0.00  0.00    +0.000 HD
ENDBRANCH   6  23
BRANCH   1  25
ATOM     25  O   UNL     1       9.980  -2.411  22.795  0.00  0.00    +0.000 OA
ATOM     26  H   UNL     1       9.651  -3.264  23.125  0.00  0.00    +0.000 HD
ENDBRANCH   1  25
TORSDOF 6
ENDMDL
MODEL 9
REMARK VINA RESULT:      -6.8      4.498      7.260
REMARK  Name = 
REMARK  6 active torsions:
REMARK  status: ('A' for Active; 'I' for Inactive)
REMARK    1  A    between atoms: O_1  and  C_2
REMARK    2  A    between atoms: C_5  and  O_6
REMARK    3  A    between atoms: C_8  and  O_9
REMARK    4  A    between atoms: C_13  and  C_14
REMARK    5  A    between atoms: C_16  and  O_17
REMARK    6  A    between atoms: C_18  and  O_19
REMARK                            x       y       z     vdW  Elec       q    Type
REMARK                         _______ _______ _______ _____ _____    ______ ____
ROOT
ATOM      1  C   UNL     1       8.131   3.023  23.334  0.00  0.00    +0.000 C 
ATOM      2  C   UNL     1       8.561   4.337  23.989  0.00  0.00    +0.000 C 
ATOM      3  C   UNL     1      10.035   4.590  23.817  0.00  0.00    +0.000 A 
ATOM      4  C   UNL     1      10.601   5.855  24.042  0.00  0.00    +0.000 A 
ATOM      5  C   UNL     1      11.961   6.087  23.844  0.00  0.00    +0.000 A 
ATOM      6  C   UNL     1      12.775   5.043  23.424  0.00  0.00    +0.000 A 
ATOM      7  C   UNL     1      12.249   3.775  23.217  0.00  0.00    +0.000 A 
ATOM      8  C   UNL     1      10.888   3.543  23.431  0.00  0.00    +0.000 A 
ATOM      9  O   UNL     1      10.468   2.256  23.208  0.00  0.00    +0.000 OA
ATOM     10  C   UNL     1       9.162   1.949  23.725  0.00  0.00    +0.000 C 
ENDROOT
BRANCH  10  11
ATOM     11  C   UNL     1       8.740   0.548  23.304  0.00  0.00    +0.000 A 
ATOM     12  C   UNL     1       7.449   0.060  23.566  0.00  0.00    +0.000 A 
ATOM     13  C   UNL     1       7.089  -1.213  23.130  0.00  0.00    +0.000 A 
ATOM     14  C   UNL     1       8.003  -2.012  22.449  0.00  0.00    +0.000 A 
ATOM     15  C   UNL     1       9.291  -1.562  22.204  0.00  0.00    +0.000 A 
ATOM     16  C   UNL     1       9.660  -0.285  22.635  0.00  0.00    +0.000 A 
BRANCH  13  17
ATOM     17  O   UNL     1       5.839  -1.723  23.345  0.00  0.00    +0.000 OA
ATOM     18  H   UNL     1       5.883  -2.682  23.178  0.00  0.00    +0.000 HD
ENDBRANCH  13  17
BRANCH  14  19
ATOM     19  O   UNL     1       7.634  -3.252  22.012  0.00  0.00    +0.000 OA
ATOM     20  H   UNL     1       8.293  -3.854  22.412  0.00  0.00    +0.000 HD
ENDBRANCH  14  19
ENDBRANCH  10  11
BRANCH   4  21
ATOM     21  O   UNL     1       9.877   6.936  24.463  0.00  0.00    +0.000 OA
ATOM     22  H   UNL     1       8.990   6.659  24.735  0.00  0.00    +0.000 HD
ENDBRANCH   4  21
BRANCH   6  23
ATOM     23  O   UNL     1      14.109   5.229  23.208  0.00  0.00    +0.000 OA
ATOM     24  H   UNL     1      14.594   4.926  23.994  0.00  0.00    +0.000 HD
ENDBRANCH   6  23
BRANCH   1  25
ATOM     25  O   UNL     1       8.046   3.189  21.910  0.00  0.00    +0.000 OA
ATOM     26  H   UNL     1       7.268   2.703  21.589  0.00  0.00    +0.000 HD
ENDBRANCH   1  25
TORSDOF 6
ENDMDL
