MODEL 1
REMARK VINA RESULT:      -5.0      0.000      0.000
REMARK  Name = 
REMARK  4 active torsions:
REMARK  status: ('A' for Active; 'I' for Inactive)
REMARK    1  A    between atoms: C_1  and  O_2
REMARK    2  A    between atoms: O_2  and  C_3
REMARK    3  A    between atoms: C_5  and  C_10
REMARK    4  A    between atoms: C_8  and  O_9
REMARK                            x       y       z     vdW  Elec       q    Type
REMARK                         _______ _______ _______ _____ _____    ______ ____
ROOT
ATOM      1  C   UNL     1       9.795   1.083  23.608  0.00  0.00    +0.000 A 
ATOM      2  C   UNL     1       9.645  -0.109  24.336  0.00  0.00    +0.000 A 
ATOM      3  C   UNL     1       9.522  -1.359  23.700  0.00  0.00    +0.000 A 
ATOM      4  C   UNL     1       9.555  -1.392  22.300  0.00  0.00    +0.000 A 
ATOM      5  C   UNL     1       9.701  -0.220  21.560  0.00  0.00    +0.000 A 
ATOM      6  C   UNL     1       9.819   1.013  22.210  0.00  0.00    +0.000 A 
ENDROOT
BRANCH   3   7
ATOM      7  C   UNL     1       9.355  -2.640  24.494  0.00  0.00    +0.000 C 
ATOM      8  O   UNL     1      10.082  -3.630  24.165  0.00  0.00    +0.000 OA
ATOM      9  O   UNL     1       8.496  -2.629  25.433  0.00  0.00    +0.000 OA
ENDBRANCH   3   7
BRANCH   1  11
ATOM     10  C   UNL     1       8.707   2.867  24.765  0.00  0.00    +0.000 C 
ATOM     11  O   UNL     1       9.903   2.196  24.400  0.00  0.00    +0.000 OA
ENDBRANCH   1  11
BRANCH   6  12
ATOM     12  O   UNL     1       9.954   2.132  21.430  0.00  0.00    +0.000 OA
ATOM     13  H   UNL     1      10.520   1.904  20.676  0.00  0.00    +0.000 HD
ENDBRANCH   6  12
TORSDOF 3
ENDMDL
MODEL 2
REMARK VINA RESULT:      -4.8      4.035      6.453
REMARK  Name = 
REMARK  4 active torsions:
REMARK  status: ('A' for Active; 'I' for Inactive)
REMARK    1  A    between atoms: C_1  and  O_2
REMARK    2  A    between atoms: O_2  and  C_3
REMARK    3  A    between atoms: C_5  and  C_10
REMARK    4  A    between atoms: C_8  and  O_9
REMARK                            x       y       z     vdW  Elec       q    Type
REMARK                         _______ _______ _______ _____ _____    ______ ____
ROOT
ATOM      1  C   UNL     1       8.318  -4.715  24.718  0.00  0.00    +0.000 A 
ATOM      2  C   UNL     1       7.444  -4.721  23.618  0.00  0.00    +0.000 A 
ATOM      3  C   UNL     1       6.111  -5.161  23.729  0.00  0.00    +0.000 A 
ATOM      4  C   UNL     1       5.666  -5.600  24.983  0.00  0.00    +0.000 A 
ATOM      5  C   UNL     1       6.518  -5.605  26.084  0.00  0.00    +0.000 A 
ATOM      6  C   UNL     1       7.841  -5.166  25.954  0.00  0.00    +0.000 A 
ENDROOT
BRANCH   3   7
ATOM      7  C   UNL     1       5.176  -5.167  22.536  0.00  0.00    +0.000 C 
ATOM      8  O   UNL     1       5.655  -5.549  21.421  0.00  0.00    +0.000 OA
ATOM      9  O   UNL     1       3.978  -4.789  22.740  0.00  0.00    +0.000 OA
ENDBRANCH   3   7
BRANCH   1  11
ATOM     10  C   UNL     1       9.704  -2.877  24.079  0.00  0.00    +0.000 C 
ATOM     11  O   UNL     1       9.572  -4.249  24.415  0.00  0.00    +0.000 OA
ENDBRANCH   1  11
BRANCH   6  12
ATOM     12  O   UNL     1       8.635  -5.199  27.070  0.00  0.00    +0.000 OA
ATOM     13  H   UNL     1       8.844  -6.127  27.261  0.00  0.00    +0.000 HD
ENDBRANCH   6  12
TORSDOF 3
ENDMDL
MODEL 3
REMARK VINA RESULT:      -4.6      5.308      7.128
REMARK  Name = 
REMARK  4 active torsions:
REMARK  status: ('A' for Active; 'I' for Inactive)
REMARK    1  A    between atoms: C_1  and  O_2
REMARK    2  A    between atoms: O_2  and  C_3
REMARK    3  A    between atoms: C_5  and  C_10
REMARK    4  A    between atoms: C_8  and  O_9
REMARK                            x       y       z     vdW  Elec       q    Type
REMARK                         _______ _______ _______ _____ _____    ______ ____
ROOT
ATOM      1  C   UNL     1       6.570  -5.692  25.813  0.00  0.00    +0.000 A 
ATOM      2  C   UNL     1       5.883  -5.502  24.603  0.00  0.00    +0.000 A 
ATOM      3  C   UNL     1       6.473  -4.843  23.508  0.00  0.00    +0.000 A 
ATOM      4  C   UNL     1       7.785  -4.373  23.650  0.00  0.00    +0.000 A 
ATOM      5  C   UNL     1       8.482  -4.549  24.843  0.00  0.00    +0.000 A 
ATOM      6  C   UNL     1       7.878  -5.205  25.922  0.00  0.00    +0.000 A 
ENDROOT
BRANCH   3   7
ATOM      7  C   UNL     1       5.721  -4.638  22.207  0.00  0.00    +0.000 C 
ATOM      8  O   UNL     1       5.241  -3.481  21.987  0.00  0.00    +0.000 OA
ATOM      9  O   UNL     1       5.626  -5.642  21.431  0.00  0.00    +0.000 OA
ENDBRANCH   3   7
BRANCH   1  11
ATOM     10  C   UNL     1       4.551  -6.832  26.387  0.00  0.00    +0.000 C 
ATOM     11  O   UNL     1       5.834  -6.357  26.760  0.00  0.00    +0.000 OA
ENDBRANCH   1  11
BRANCH   6  12
ATOM     12  O   UNL     1       8.611  -5.344  27.072  0.00  0.00    +0.000 OA
ATOM     13  H   UNL     1       9.119  -6.168  27.005  0.00  0.00    +0.000 HD
ENDBRANCH   6  12
TORSDOF 3
ENDMDL
MODEL 4
REMARK VINA RESULT:      -4.5      1.573      4.256
REMARK  Name = 
REMARK  4 active torsions:
REMARK  status: ('A' for Active; 'I' for Inactive)
REMARK    1  A    between atoms: C_1  and  O_2
REMARK    2  A    between atoms: O_2  and  C_3
REMARK    3  A    between atoms: C_5  and  C_10
REMARK    4  A    between atoms: C_8  and  O_9
REMARK                            x       y       z     vdW  Elec       q    Type
REMARK                         _______ _______ _______ _____ _____    ______ ____
ROOT
ATOM      1  C   UNL     1       9.797  -0.523  23.615  0.00  0.00    +0.000 A 
ATOM      2  C   UNL     1       9.519   0.647  24.341  0.00  0.00    +0.000 A 
ATOM      3  C   UNL     1       9.290   1.881  23.704  0.00  0.00    +0.000 A 
ATOM      4  C   UNL     1       9.342   1.919  22.305  0.00  0.00    +0.000 A 
ATOM      5  C   UNL     1       9.619   0.770  21.567  0.00  0.00    +0.000 A 
ATOM      6  C   UNL     1       9.847  -0.447  22.219  0.00  0.00    +0.000 A 
ENDROOT
BRANCH   3   7
ATOM      7  C   UNL     1       8.996   3.140  24.496  0.00  0.00    +0.000 C 
ATOM      8  O   UNL     1       8.192   3.038  25.477  0.00  0.00    +0.000 OA
ATOM      9  O   UNL     1       9.576   4.208  24.118  0.00  0.00    +0.000 OA
ENDBRANCH   3   7
BRANCH   1  11
ATOM     10  C   UNL     1       8.870  -2.464  24.656  0.00  0.00    +0.000 C 
ATOM     11  O   UNL     1       9.987  -1.625  24.409  0.00  0.00    +0.000 OA
ENDBRANCH   1  11
BRANCH   6  12
ATOM     12  O   UNL     1      10.120  -1.543  21.442  0.00  0.00    +0.000 OA
ATOM     13  H   UNL     1       9.275  -1.918  21.147  0.00  0.00    +0.000 HD
ENDBRANCH   6  12
TORSDOF 3
ENDMDL
MODEL 5
REMARK VINA RESULT:      -4.5      1.928      3.309
REMARK  Name = 
REMARK  4 active torsions:
REMARK  status: ('A' for Active; 'I' for Inactive)
REMARK    1  A    between atoms: C_1  and  O_2
REMARK    2  A    between atoms: O_2  and  C_3
REMARK    3  A    between atoms: C_5  and  C_10
REMARK    4  A    between atoms: C_8  and  O_9
REMARK                            x       y       z     vdW  Elec       q    Type
REMARK                         _______ _______ _______ _____ _____    ______ ____
ROOT
ATOM      1  C   UNL     1       9.881  -1.032  23.995  0.00  0.00    +0.000 A 
ATOM      2  C   UNL     1       9.615  -2.400  23.817  0.00  0.00    +0.000 A 
ATOM      3  C   UNL     1       8.924  -3.155  24.784  0.00  0.00    +0.000 A 
ATOM      4  C   UNL     1       8.497  -2.502  25.948  0.00  0.00    +0.000 A 
ATOM      5  C   UNL     1       8.754  -1.147  26.144  0.00  0.00    +0.000 A 
ATOM      6  C   UNL     1       9.445  -0.414  25.173  0.00  0.00    +0.000 A 
ENDROOT
BRANCH   3   7
ATOM      7  C   UNL     1       8.644  -4.632  24.586  0.00  0.00    +0.000 C 
ATOM      8  O   UNL     1       7.461  -4.964  24.258  0.00  0.00    +0.000 OA
ATOM      9  O   UNL     1       9.618  -5.432  24.764  0.00  0.00    +0.000 OA
ENDBRANCH   3   7
BRANCH   1  11
ATOM     10  C   UNL     1       9.798   0.086  21.886  0.00  0.00    +0.000 C 
ATOM     11  O   UNL     1      10.561  -0.468  22.946  0.00  0.00    +0.000 OA
ENDBRANCH   1  11
BRANCH   6  12
ATOM     12  O   UNL     1       9.674   0.914  25.423  0.00  0.00    +0.000 OA
ATOM     13  H   UNL     1      10.574   1.123  25.125  0.00  0.00    +0.000 HD
ENDBRANCH   6  12
TORSDOF 3
ENDMDL
MODEL 6
REMARK VINA RESULT:      -4.4      1.718      2.462
REMARK  Name = 
REMARK  4 active torsions:
REMARK  status: ('A' for Active; 'I' for Inactive)
REMARK    1  A    between atoms: C_1  and  O_2
REMARK    2  A    between atoms: O_2  and  C_3
REMARK    3  A    between atoms: C_5  and  C_10
REMARK    4  A    between atoms: C_8  and  O_9
REMARK                            x       y       z     vdW  Elec       q    Type
REMARK                         _______ _______ _______ _____ _____    ______ ____
ROOT
ATOM      1  C   UNL     1       8.974   1.803  22.335  0.00  0.00    +0.000 A 
ATOM      2  C   UNL     1       8.824   0.408  22.264  0.00  0.00    +0.000 A 
ATOM      3  C   UNL     1       9.621  -0.466  23.029  0.00  0.00    +0.000 A 
ATOM      4  C   UNL     1      10.583   0.094  23.878  0.00  0.00    +0.000 A 
ATOM      5  C   UNL     1      10.750   1.475  23.960  0.00  0.00    +0.000 A 
ATOM      6  C   UNL     1       9.950   2.328  23.190  0.00  0.00    +0.000 A 
ENDROOT
BRANCH   3   7
ATOM      7  C   UNL     1       9.455  -1.970  22.942  0.00  0.00    +0.000 C 
ATOM      8  O   UNL     1       8.517  -2.413  22.206  0.00  0.00    +0.000 OA
ATOM      9  O   UNL     1      10.269  -2.680  23.616  0.00  0.00    +0.000 OA
ENDBRANCH   3   7
BRANCH   1  11
ATOM     10  C   UNL     1       6.872   2.907  22.077  0.00  0.00    +0.000 C 
ATOM     11  O   UNL     1       8.107   2.487  21.522  0.00  0.00    +0.000 OA
ENDBRANCH   1  11
BRANCH   6  12
ATOM     12  O   UNL     1      10.162   3.677  23.308  0.00  0.00    +0.000 OA
ATOM     13  H   UNL     1       9.931   4.090  22.462  0.00  0.00    +0.000 HD
ENDBRANCH   6  12
TORSDOF 3
ENDMDL
MODEL 7
REMARK VINA RESULT:      -4.4      1.737      1.968
REMARK  Name = 
REMARK  4 active torsions:
REMARK  status: ('A' for Active; 'I' for Inactive)
REMARK    1  A    between atoms: C_1  and  O_2
REMARK    2  A    between atoms: O_2  and  C_3
REMARK    3  A    between atoms: C_5  and  C_10
REMARK    4  A    between atoms: C_8  and  O_9
REMARK                            x       y       z     vdW  Elec       q    Type
REMARK                         _______ _______ _______ _____ _____    ______ ____
ROOT
ATOM      1  C   UNL     1       7.835   0.381  22.551  0.00  0.00    +0.000 A 
ATOM      2  C   UNL     1       7.798  -0.871  23.185  0.00  0.00    +0.000 A 
ATOM      3  C   UNL     1       8.894  -1.755  23.151  0.00  0.00    +0.000 A 
ATOM      4  C   UNL     1      10.044  -1.352  22.461  0.00  0.00    +0.000 A 
ATOM      5  C   UNL     1      10.099  -0.114  21.823  0.00  0.00    +0.000 A 
ATOM      6  C   UNL     1       8.999   0.750  21.866  0.00  0.00    +0.000 A 
ENDROOT
BRANCH   3   7
ATOM      7  C   UNL     1       8.844  -3.108  23.835  0.00  0.00    +0.000 C 
ATOM      8  O   UNL     1       7.703  -3.655  23.962  0.00  0.00    +0.000 OA
ATOM      9  O   UNL     1       9.951  -3.595  24.231  0.00  0.00    +0.000 OA
ENDBRANCH   3   7
BRANCH   1  11
ATOM     10  C   UNL     1       6.446   1.735  23.945  0.00  0.00    +0.000 C 
ATOM     11  O   UNL     1       6.677   1.101  22.698  0.00  0.00    +0.000 OA
ENDBRANCH   1  11
BRANCH   6  12
ATOM     12  O   UNL     1       9.108   1.951  21.215  0.00  0.00    +0.000 OA
ATOM     13  H   UNL     1       9.373   1.772  20.299  0.00  0.00    +0.000 HD
ENDBRANCH   6  12
TORSDOF 3
ENDMDL
MODEL 8
REMARK VINA RESULT:      -4.4      3.536      6.411
REMARK  Name = 
REMARK  4 active torsions:
REMARK  status: ('A' for Active; 'I' for Inactive)
REMARK    1  A    between atoms: C_1  and  O_2
REMARK    2  A    between atoms: O_2  and  C_3
REMARK    3  A    between atoms: C_5  and  C_10
REMARK    4  A    between atoms: C_8  and  O_9
REMARK                            x       y       z     vdW  Elec       q    Type
REMARK                         _______ _______ _______ _____ _____    ______ ____
ROOT
ATOM      1  C   UNL     1       6.829  -4.804  25.724  0.00  0.00    +0.000 A 
ATOM      2  C   UNL     1       6.995  -4.005  24.581  0.00  0.00    +0.000 A 
ATOM      3  C   UNL     1       8.266  -3.583  24.146  0.00  0.00    +0.000 A 
ATOM      4  C   UNL     1       9.383  -3.984  24.890  0.00  0.00    +0.000 A 
ATOM      5  C   UNL     1       9.239  -4.774  26.028  0.00  0.00    +0.000 A 
ATOM      6  C   UNL     1       7.967  -5.182  26.446  0.00  0.00    +0.000 A 
ENDROOT
BRANCH   3   7
ATOM      7  C   UNL     1       8.435  -2.716  22.914  0.00  0.00    +0.000 C 
ATOM      8  O   UNL     1       9.518  -2.058  22.807  0.00  0.00    +0.000 OA
ATOM      9  O   UNL     1       7.478  -2.712  22.076  0.00  0.00    +0.000 OA
ENDBRANCH   3   7
BRANCH   1  11
ATOM     10  C   UNL     1       5.030  -6.361  25.514  0.00  0.00    +0.000 C 
ATOM     11  O   UNL     1       5.520  -5.116  25.986  0.00  0.00    +0.000 OA
ENDBRANCH   1  11
BRANCH   6  12
ATOM     12  O   UNL     1       7.886  -5.953  27.576  0.00  0.00    +0.000 OA
ATOM     13  H   UNL     1       8.212  -5.425  28.322  0.00  0.00    +0.000 HD
ENDBRANCH   6  12
TORSDOF 3
ENDMDL
MODEL 9
REMARK VINA RESULT:      -4.3      2.768      4.757
REMARK  Name = 
REMARK  4 active torsions:
REMARK  status: ('A' for Active; 'I' for Inactive)
REMARK    1  A    between atoms: C_1  and  O_2
REMARK    2  A    between atoms: O_2  and  C_3
REMARK    3  A    between atoms: C_5  and  C_10
REMARK    4  A    between atoms: C_8  and  O_9
REMARK                            x       y       z     vdW  Elec       q    Type
REMARK                         _______ _______ _______ _____ _____    ______ ____
ROOT
ATOM      1  C   UNL     1       8.156  -1.054  22.643  0.00  0.00    +0.000 A 
ATOM      2  C   UNL     1       7.181  -0.085  22.929  0.00  0.00    +0.000 A 
ATOM      3  C   UNL     1       7.296   1.243  22.475  0.00  0.00    +0.000 A 
ATOM      4  C   UNL     1       8.424   1.584  21.717  0.00  0.00    +0.000 A 
ATOM      5  C   UNL     1       9.403   0.637  21.425  0.00  0.00    +0.000 A 
ATOM      6  C   UNL     1       9.272  -0.677  21.887  0.00  0.00    +0.000 A 
ENDROOT
BRANCH   3   7
ATOM      7  C   UNL     1       6.241   2.285  22.792  0.00  0.00    +0.000 C 
ATOM      8  O   UNL     1       5.478   2.059  23.784  0.00  0.00    +0.000 OA
ATOM      9  O   UNL     1       6.197   3.310  22.039  0.00  0.00    +0.000 OA
ENDBRANCH   3   7
BRANCH   1  11
ATOM     10  C   UNL     1       7.211  -3.226  22.326  0.00  0.00    +0.000 C 
ATOM     11  O   UNL     1       7.867  -2.289  23.166  0.00  0.00    +0.000 OA
ENDBRANCH   1  11
BRANCH   6  12
ATOM     12  O   UNL     1      10.269  -1.564  21.575  0.00  0.00    +0.000 OA
ATOM     13  H   UNL     1      10.437  -2.113  22.356  0.00  0.00    +0.000 HD
ENDBRANCH   6  12
TORSDOF 3
ENDMDL
