MODEL 1
REMARK VINA RESULT:      -7.2      0.000      0.000
REMARK  Name = 
REMARK  4 active torsions:
REMARK  status: ('A' for Active; 'I' for Inactive)
REMARK    1  A    between atoms: C_1  and  C_2
REMARK    2  A    between atoms: C_4  and  O_5
REMARK    3  A    between atoms: C_12  and  O_13
REMARK    4  A    between atoms: C_15  and  O_16
REMARK                            x       y       z     vdW  Elec       q    Type
REMARK                         _______ _______ _______ _____ _____    ______ ____
ROOT
ATOM      1  C   UNL     1      10.725   2.960  23.721  0.00  0.00    +0.000 C 
ATOM      2  C   UNL     1      10.179   1.578  23.523  0.00  0.00    +0.000 A 
ATOM      3  C   UNL     1      10.016   1.030  22.248  0.00  0.00    +0.000 A 
ATOM      4  C   UNL     1       9.501  -0.263  22.094  0.00  0.00    +0.000 A 
ATOM      5  C   UNL     1       9.138  -1.039  23.209  0.00  0.00    +0.000 A 
ATOM      6  C   UNL     1       8.589  -2.420  23.083  0.00  0.00    +0.000 C 
ATOM      7  O   UNL     1       8.441  -2.925  21.979  0.00  0.00    +0.000 OA
ATOM      8  C   UNL     1       8.223  -3.182  24.313  0.00  0.00    +0.000 A 
ATOM      9  C   UNL     1       8.402  -2.593  25.566  0.00  0.00    +0.000 A 
ATOM     10  C   UNL     1       8.070  -3.277  26.747  0.00  0.00    +0.000 A 
ATOM     11  C   UNL     1       7.555  -4.560  26.670  0.00  0.00    +0.000 A 
ATOM     12  C   UNL     1       7.365  -5.171  25.438  0.00  0.00    +0.000 A 
ATOM     13  C   UNL     1       7.698  -4.486  24.266  0.00  0.00    +0.000 A 
ATOM     14  C   UNL     1       8.945  -1.233  25.689  0.00  0.00    +0.000 C 
ATOM     15  O   UNL     1       9.097  -0.731  26.798  0.00  0.00    +0.000 OA
ATOM     16  C   UNL     1       9.305  -0.482  24.477  0.00  0.00    +0.000 A 
ATOM     17  C   UNL     1       9.820   0.814  24.635  0.00  0.00    +0.000 A 
ENDROOT
BRANCH   4  18
ATOM     18  O   UNL     1       9.362  -0.748  20.824  0.00  0.00    +0.000 OA
ATOM     19  H   UNL     1       8.592  -0.356  20.384  0.00  0.00    +0.000 HD
ENDBRANCH   4  18
BRANCH  11  20
ATOM     20  O   UNL     1       7.220  -5.261  27.789  0.00  0.00    +0.000 OA
ATOM     21  H   UNL     1       8.032  -5.589  28.213  0.00  0.00    +0.000 HD
ENDBRANCH  11  20
BRANCH  13  22
ATOM     22  O   UNL     1       7.496  -5.123  23.075  0.00  0.00    +0.000 OA
ATOM     23  H   UNL     1       7.631  -6.078  23.166  0.00  0.00    +0.000 HD
ENDBRANCH  13  22
TORSDOF 3
ENDMDL
MODEL 2
REMARK VINA RESULT:      -7.0      1.909      2.022
REMARK  Name = 
REMARK  4 active torsions:
REMARK  status: ('A' for Active; 'I' for Inactive)
REMARK    1  A    between atoms: C_1  and  C_2
REMARK    2  A    between atoms: C_4  and  O_5
REMARK    3  A    between atoms: C_12  and  O_13
REMARK    4  A    between atoms: C_15  and  O_16
REMARK                            x       y       z     vdW  Elec       q    Type
REMARK                         _______ _______ _______ _____ _____    ______ ____
ROOT
ATOM      1  C   UNL     1       7.190   2.516  21.861  0.00  0.00    +0.000 C 
ATOM      2  C   UNL     1       7.785   1.225  22.335  0.00  0.00    +0.000 A 
ATOM      3  C   UNL     1       8.934   0.689  21.749  0.00  0.00    +0.000 A 
ATOM      4  C   UNL     1       9.467  -0.522  22.212  0.00  0.00    +0.000 A 
ATOM      5  C   UNL     1       8.864  -1.223  23.271  0.00  0.00    +0.000 A 
ATOM      6  C   UNL     1       9.403  -2.512  23.791  0.00  0.00    +0.000 C 
ATOM      7  O   UNL     1      10.411  -3.001  23.300  0.00  0.00    +0.000 OA
ATOM      8  C   UNL     1       8.707  -3.202  24.917  0.00  0.00    +0.000 A 
ATOM      9  C   UNL     1       7.559  -2.629  25.470  0.00  0.00    +0.000 A 
ATOM     10  C   UNL     1       6.876  -3.246  26.530  0.00  0.00    +0.000 A 
ATOM     11  C   UNL     1       7.345  -4.445  27.038  0.00  0.00    +0.000 A 
ATOM     12  C   UNL     1       8.482  -5.039  26.508  0.00  0.00    +0.000 A 
ATOM     13  C   UNL     1       9.160  -4.421  25.453  0.00  0.00    +0.000 A 
ATOM     14  C   UNL     1       7.031  -1.357  24.958  0.00  0.00    +0.000 C 
ATOM     15  O   UNL     1       6.022  -0.867  25.457  0.00  0.00    +0.000 OA
ATOM     16  C   UNL     1       7.716  -0.679  23.848  0.00  0.00    +0.000 A 
ATOM     17  C   UNL     1       7.180   0.533  23.386  0.00  0.00    +0.000 A 
ENDROOT
BRANCH   4  18
ATOM     18  O   UNL     1      10.591  -1.000  21.602  0.00  0.00    +0.000 OA
ATOM     19  H   UNL     1      10.492  -1.938  21.373  0.00  0.00    +0.000 HD
ENDBRANCH   4  18
BRANCH  11  20
ATOM     20  O   UNL     1       6.714  -5.079  28.066  0.00  0.00    +0.000 OA
ATOM     21  H   UNL     1       6.297  -5.892  27.730  0.00  0.00    +0.000 HD
ENDBRANCH  11  20
BRANCH  13  22
ATOM     22  O   UNL     1      10.274  -5.037  24.961  0.00  0.00    +0.000 OA
ATOM     23  H   UNL     1      10.283  -5.977  25.198  0.00  0.00    +0.000 HD
ENDBRANCH  13  22
TORSDOF 3
ENDMDL
MODEL 3
REMARK VINA RESULT:      -6.9      3.555      7.441
REMARK  Name = 
REMARK  4 active torsions:
REMARK  status: ('A' for Active; 'I' for Inactive)
REMARK    1  A    between atoms: C_1  and  C_2
REMARK    2  A    between atoms: C_4  and  O_5
REMARK    3  A    between atoms: C_12  and  O_13
REMARK    4  A    between atoms: C_15  and  O_16
REMARK                            x       y       z     vdW  Elec       q    Type
REMARK                         _______ _______ _______ _____ _____    ______ ____
ROOT
ATOM      1  C   UNL     1       0.812  -6.356  22.497  0.00  0.00    +0.000 C 
ATOM      2  C   UNL     1       2.003  -6.327  23.408  0.00  0.00    +0.000 A 
ATOM      3  C   UNL     1       1.992  -6.968  24.649  0.00  0.00    +0.000 A 
ATOM      4  C   UNL     1       3.120  -6.922  25.479  0.00  0.00    +0.000 A 
ATOM      5  C   UNL     1       4.283  -6.236  25.088  0.00  0.00    +0.000 A 
ATOM      6  C   UNL     1       5.502  -6.168  25.944  0.00  0.00    +0.000 C 
ATOM      7  O   UNL     1       5.522  -6.725  27.033  0.00  0.00    +0.000 OA
ATOM      8  C   UNL     1       6.700  -5.418  25.463  0.00  0.00    +0.000 A 
ATOM      9  C   UNL     1       6.663  -4.792  24.214  0.00  0.00    +0.000 A 
ATOM     10  C   UNL     1       7.768  -4.077  23.726  0.00  0.00    +0.000 A 
ATOM     11  C   UNL     1       8.918  -3.989  24.494  0.00  0.00    +0.000 A 
ATOM     12  C   UNL     1       8.983  -4.601  25.738  0.00  0.00    +0.000 A 
ATOM     13  C   UNL     1       7.880  -5.311  26.220  0.00  0.00    +0.000 A 
ATOM     14  C   UNL     1       5.462  -4.862  23.371  0.00  0.00    +0.000 C 
ATOM     15  O   UNL     1       5.448  -4.307  22.277  0.00  0.00    +0.000 OA
ATOM     16  C   UNL     1       4.283  -5.600  23.847  0.00  0.00    +0.000 A 
ATOM     17  C   UNL     1       3.154  -5.644  23.013  0.00  0.00    +0.000 A 
ENDROOT
BRANCH   4  18
ATOM     18  O   UNL     1       3.054  -7.565  26.683  0.00  0.00    +0.000 OA
ATOM     19  H   UNL     1       2.753  -6.965  27.383  0.00  0.00    +0.000 HD
ENDBRANCH   4  18
BRANCH  11  20
ATOM     20  O   UNL     1      10.014  -3.307  24.059  0.00  0.00    +0.000 OA
ATOM     21  H   UNL     1      10.581  -3.099  24.822  0.00  0.00    +0.000 HD
ENDBRANCH  11  20
BRANCH  13  22
ATOM     22  O   UNL     1       7.985  -5.898  27.448  0.00  0.00    +0.000 OA
ATOM     23  H   UNL     1       8.858  -6.301  27.566  0.00  0.00    +0.000 HD
ENDBRANCH  13  22
TORSDOF 3
ENDMDL
MODEL 4
REMARK VINA RESULT:      -6.9      2.870      5.188
REMARK  Name = 
REMARK  4 active torsions:
REMARK  status: ('A' for Active; 'I' for Inactive)
REMARK    1  A    between atoms: C_1  and  C_2
REMARK    2  A    between atoms: C_4  and  O_5
REMARK    3  A    between atoms: C_12  and  O_13
REMARK    4  A    between atoms: C_15  and  O_16
REMARK                            x       y       z     vdW  Elec       q    Type
REMARK                         _______ _______ _______ _____ _____    ______ ____
ROOT
ATOM      1  C   UNL     1       9.724  -1.557  22.277  0.00  0.00    +0.000 C 
ATOM      2  C   UNL     1       8.976  -2.545  23.120  0.00  0.00    +0.000 A 
ATOM      3  C   UNL     1       9.482  -2.997  24.341  0.00  0.00    +0.000 A 
ATOM      4  C   UNL     1       8.762  -3.923  25.107  0.00  0.00    +0.000 A 
ATOM      5  C   UNL     1       7.519  -4.417  24.671  0.00  0.00    +0.000 A 
ATOM      6  C   UNL     1       6.724  -5.401  25.460  0.00  0.00    +0.000 C 
ATOM      7  O   UNL     1       7.142  -5.810  26.535  0.00  0.00    +0.000 OA
ATOM      8  C   UNL     1       5.414  -5.883  24.932  0.00  0.00    +0.000 A 
ATOM      9  C   UNL     1       4.949  -5.403  23.705  0.00  0.00    +0.000 A 
ATOM     10  C   UNL     1       3.722  -5.832  23.173  0.00  0.00    +0.000 A 
ATOM     11  C   UNL     1       2.956  -6.747  23.876  0.00  0.00    +0.000 A 
ATOM     12  C   UNL     1       3.393  -7.241  25.097  0.00  0.00    +0.000 A 
ATOM     13  C   UNL     1       4.615  -6.812  25.622  0.00  0.00    +0.000 A 
ATOM     14  C   UNL     1       5.733  -4.432  22.930  0.00  0.00    +0.000 C 
ATOM     15  O   UNL     1       5.309  -4.020  21.854  0.00  0.00    +0.000 OA
ATOM     16  C   UNL     1       7.024  -3.959  23.451  0.00  0.00    +0.000 A 
ATOM     17  C   UNL     1       7.744  -3.031  22.681  0.00  0.00    +0.000 A 
ENDROOT
BRANCH   4  18
ATOM     18  O   UNL     1       9.304  -4.333  26.292  0.00  0.00    +0.000 OA
ATOM     19  H   UNL     1      10.139  -3.872  26.472  0.00  0.00    +0.000 HD
ENDBRANCH   4  18
BRANCH  11  20
ATOM     20  O   UNL     1       1.760  -7.189  23.399  0.00  0.00    +0.000 OA
ATOM     21  H   UNL     1       1.456  -7.935  23.945  0.00  0.00    +0.000 HD
ENDBRANCH  11  20
BRANCH  13  22
ATOM     22  O   UNL     1       5.008  -7.322  26.826  0.00  0.00    +0.000 OA
ATOM     23  H   UNL     1       5.305  -6.617  27.421  0.00  0.00    +0.000 HD
ENDBRANCH  13  22
TORSDOF 3
ENDMDL
MODEL 5
REMARK VINA RESULT:      -6.8      1.171      5.453
REMARK  Name = 
REMARK  4 active torsions:
REMARK  status: ('A' for Active; 'I' for Inactive)
REMARK    1  A    between atoms: C_1  and  C_2
REMARK    2  A    between atoms: C_4  and  O_5
REMARK    3  A    between atoms: C_12  and  O_13
REMARK    4  A    between atoms: C_15  and  O_16
REMARK                            x       y       z     vdW  Elec       q    Type
REMARK                         _______ _______ _______ _____ _____    ______ ____
ROOT
ATOM      1  C   UNL     1       6.848  -5.311  27.643  0.00  0.00    +0.000 C 
ATOM      2  C   UNL     1       7.257  -4.555  26.415  0.00  0.00    +0.000 A 
ATOM      3  C   UNL     1       7.058  -5.074  25.133  0.00  0.00    +0.000 A 
ATOM      4  C   UNL     1       7.452  -4.346  24.004  0.00  0.00    +0.000 A 
ATOM      5  C   UNL     1       8.053  -3.081  24.129  0.00  0.00    +0.000 A 
ATOM      6  C   UNL     1       8.484  -2.275  22.950  0.00  0.00    +0.000 C 
ATOM      7  O   UNL     1       8.316  -2.705  21.816  0.00  0.00    +0.000 OA
ATOM      8  C   UNL     1       9.119  -0.941  23.160  0.00  0.00    +0.000 A 
ATOM      9  C   UNL     1       9.299  -0.463  24.461  0.00  0.00    +0.000 A 
ATOM     10  C   UNL     1       9.892   0.786  24.701  0.00  0.00    +0.000 A 
ATOM     11  C   UNL     1      10.307   1.562  23.631  0.00  0.00    +0.000 A 
ATOM     12  C   UNL     1      10.142   1.113  22.328  0.00  0.00    +0.000 A 
ATOM     13  C   UNL     1       9.551  -0.132  22.094  0.00  0.00    +0.000 A 
ATOM     14  C   UNL     1       8.872  -1.257  25.621  0.00  0.00    +0.000 C 
ATOM     15  O   UNL     1       9.038  -0.821  26.757  0.00  0.00    +0.000 OA
ATOM     16  C   UNL     1       8.248  -2.572  25.413  0.00  0.00    +0.000 A 
ATOM     17  C   UNL     1       7.855  -3.300  26.546  0.00  0.00    +0.000 A 
ENDROOT
BRANCH   4  18
ATOM     18  O   UNL     1       7.235  -4.902  22.776  0.00  0.00    +0.000 OA
ATOM     19  H   UNL     1       6.365  -5.331  22.736  0.00  0.00    +0.000 HD
ENDBRANCH   4  18
BRANCH  11  20
ATOM     20  O   UNL     1      10.886   2.781  23.818  0.00  0.00    +0.000 OA
ATOM     21  H   UNL     1      10.684   3.349  23.054  0.00  0.00    +0.000 HD
ENDBRANCH  11  20
BRANCH  13  22
ATOM     22  O   UNL     1       9.406  -0.537  20.798  0.00  0.00    +0.000 OA
ATOM     23  H   UNL     1       8.683  -0.059  20.365  0.00  0.00    +0.000 HD
ENDBRANCH  13  22
TORSDOF 3
ENDMDL
MODEL 6
REMARK VINA RESULT:      -6.8      2.249      5.745
REMARK  Name = 
REMARK  4 active torsions:
REMARK  status: ('A' for Active; 'I' for Inactive)
REMARK    1  A    between atoms: C_1  and  C_2
REMARK    2  A    between atoms: C_4  and  O_5
REMARK    3  A    between atoms: C_12  and  O_13
REMARK    4  A    between atoms: C_15  and  O_16
REMARK                            x       y       z     vdW  Elec       q    Type
REMARK                         _______ _______ _______ _____ _____    ______ ____
ROOT
ATOM      1  C   UNL     1       5.875  -5.108  28.141  0.00  0.00    +0.000 C 
ATOM      2  C   UNL     1       6.809  -4.560  27.104  0.00  0.00    +0.000 A 
ATOM      3  C   UNL     1       8.030  -5.176  26.818  0.00  0.00    +0.000 A 
ATOM      4  C   UNL     1       8.883  -4.639  25.845  0.00  0.00    +0.000 A 
ATOM      5  C   UNL     1       8.535  -3.477  25.134  0.00  0.00    +0.000 A 
ATOM      6  C   UNL     1       9.416  -2.880  24.090  0.00  0.00    +0.000 C 
ATOM      7  O   UNL     1      10.489  -3.402  23.817  0.00  0.00    +0.000 OA
ATOM      8  C   UNL     1       8.981  -1.642  23.379  0.00  0.00    +0.000 A 
ATOM      9  C   UNL     1       7.752  -1.061  23.698  0.00  0.00    +0.000 A 
ATOM     10  C   UNL     1       7.306   0.103  23.052  0.00  0.00    +0.000 A 
ATOM     11  C   UNL     1       8.098   0.688  22.078  0.00  0.00    +0.000 A 
ATOM     12  C   UNL     1       9.325   0.134  21.740  0.00  0.00    +0.000 A 
ATOM     13  C   UNL     1       9.764  -1.025  22.387  0.00  0.00    +0.000 A 
ATOM     14  C   UNL     1       6.884  -1.653  24.726  0.00  0.00    +0.000 C 
ATOM     15  O   UNL     1       5.806  -1.129  24.993  0.00  0.00    +0.000 OA
ATOM     16  C   UNL     1       7.313  -2.871  25.427  0.00  0.00    +0.000 A 
ATOM     17  C   UNL     1       6.457  -3.406  26.403  0.00  0.00    +0.000 A 
ENDROOT
BRANCH   4  18
ATOM     18  O   UNL     1      10.066  -5.281  25.608  0.00  0.00    +0.000 OA
ATOM     19  H   UNL     1       9.965  -6.242  25.694  0.00  0.00    +0.000 HD
ENDBRANCH   4  18
BRANCH  11  20
ATOM     20  O   UNL     1       7.706   1.817  21.425  0.00  0.00    +0.000 OA
ATOM     21  H   UNL     1       8.279   2.556  21.695  0.00  0.00    +0.000 HD
ENDBRANCH  11  20
BRANCH  13  22
ATOM     22  O   UNL     1      10.976  -1.538  22.024  0.00  0.00    +0.000 OA
ATOM     23  H   UNL     1      10.958  -1.855  21.109  0.00  0.00    +0.000 HD
ENDBRANCH  13  22
TORSDOF 3
ENDMDL
MODEL 7
REMARK VINA RESULT:      -6.5      2.852      6.885
REMARK  Name = 
REMARK  4 active torsions:
REMARK  status: ('A' for Active; 'I' for Inactive)
REMARK    1  A    between atoms: C_1  and  C_2
REMARK    2  A    between atoms: C_4  and  O_5
REMARK    3  A    between atoms: C_12  and  O_13
REMARK    4  A    between atoms: C_15  and  O_16
REMARK                            x       y       z     vdW  Elec       q    Type
REMARK                         _______ _______ _______ _____ _____    ______ ____
ROOT
ATOM      1  C   UNL     1       1.690  -6.523  23.222  0.00  0.00    +0.000 C 
ATOM      2  C   UNL     1       3.059  -6.164  23.715  0.00  0.00    +0.000 A 
ATOM      3  C   UNL     1       3.579  -6.705  24.893  0.00  0.00    +0.000 A 
ATOM      4  C   UNL     1       4.861  -6.349  25.331  0.00  0.00    +0.000 A 
ATOM      5  C   UNL     1       5.653  -5.445  24.601  0.00  0.00    +0.000 A 
ATOM      6  C   UNL     1       7.022  -5.045  25.035  0.00  0.00    +0.000 C 
ATOM      7  O   UNL     1       7.503  -5.508  26.061  0.00  0.00    +0.000 OA
ATOM      8  C   UNL     1       7.804  -4.078  24.210  0.00  0.00    +0.000 A 
ATOM      9  C   UNL     1       7.242  -3.562  23.039  0.00  0.00    +0.000 A 
ATOM     10  C   UNL     1       7.945  -2.650  22.235  0.00  0.00    +0.000 A 
ATOM     11  C   UNL     1       9.218  -2.253  22.607  0.00  0.00    +0.000 A 
ATOM     12  C   UNL     1       9.802  -2.748  23.765  0.00  0.00    +0.000 A 
ATOM     13  C   UNL     1       9.098  -3.655  24.562  0.00  0.00    +0.000 A 
ATOM     14  C   UNL     1       5.894  -3.959  22.612  0.00  0.00    +0.000 C 
ATOM     15  O   UNL     1       5.416  -3.497  21.580  0.00  0.00    +0.000 OA
ATOM     16  C   UNL     1       5.124  -4.911  23.426  0.00  0.00    +0.000 A 
ATOM     17  C   UNL     1       3.839  -5.266  22.986  0.00  0.00    +0.000 A 
ENDROOT
BRANCH   4  18
ATOM     18  O   UNL     1       5.318  -6.907  26.491  0.00  0.00    +0.000 OA
ATOM     19  H   UNL     1       6.142  -7.396  26.342  0.00  0.00    +0.000 HD
ENDBRANCH   4  18
BRANCH  11  20
ATOM     20  O   UNL     1       9.936  -1.371  21.857  0.00  0.00    +0.000 OA
ATOM     21  H   UNL     1      10.647  -1.851  21.396  0.00  0.00    +0.000 HD
ENDBRANCH  11  20
BRANCH  13  22
ATOM     22  O   UNL     1       9.708  -4.118  25.693  0.00  0.00    +0.000 OA
ATOM     23  H   UNL     1       9.549  -3.522  26.440  0.00  0.00    +0.000 HD
ENDBRANCH  13  22
TORSDOF 3
ENDMDL
MODEL 8
REMARK VINA RESULT:      -6.5      2.832      5.923
REMARK  Name = 
REMARK  4 active torsions:
REMARK  status: ('A' for Active; 'I' for Inactive)
REMARK    1  A    between atoms: C_1  and  C_2
REMARK    2  A    between atoms: C_4  and  O_5
REMARK    3  A    between atoms: C_12  and  O_13
REMARK    4  A    between atoms: C_15  and  O_16
REMARK                            x       y       z     vdW  Elec       q    Type
REMARK                         _______ _______ _______ _____ _____    ______ ____
ROOT
ATOM      1  C   UNL     1       7.042  -4.647  26.428  0.00  0.00    +0.000 C 
ATOM      2  C   UNL     1       7.558  -3.557  25.538  0.00  0.00    +0.000 A 
ATOM      3  C   UNL     1       8.806  -3.648  24.916  0.00  0.00    +0.000 A 
ATOM      4  C   UNL     1       9.264  -2.612  24.091  0.00  0.00    +0.000 A 
ATOM      5  C   UNL     1       8.484  -1.464  23.866  0.00  0.00    +0.000 A 
ATOM      6  C   UNL     1       8.937  -0.343  22.992  0.00  0.00    +0.000 C 
ATOM      7  O   UNL     1      10.024  -0.400  22.432  0.00  0.00    +0.000 OA
ATOM      8  C   UNL     1       8.056   0.846  22.802  0.00  0.00    +0.000 A 
ATOM      9  C   UNL     1       6.816   0.893  23.445  0.00  0.00    +0.000 A 
ATOM     10  C   UNL     1       5.958   1.994  23.293  0.00  0.00    +0.000 A 
ATOM     11  C   UNL     1       6.346   3.055  22.491  0.00  0.00    +0.000 A 
ATOM     12  C   UNL     1       7.572   3.036  21.840  0.00  0.00    +0.000 A 
ATOM     13  C   UNL     1       8.422   1.938  21.995  0.00  0.00    +0.000 A 
ATOM     14  C   UNL     1       6.371  -0.213  24.304  0.00  0.00    +0.000 C 
ATOM     15  O   UNL     1       5.278  -0.155  24.860  0.00  0.00    +0.000 OA
ATOM     16  C   UNL     1       7.240  -1.384  24.491  0.00  0.00    +0.000 A 
ATOM     17  C   UNL     1       6.779  -2.419  25.319  0.00  0.00    +0.000 A 
ENDROOT
BRANCH   4  18
ATOM     18  O   UNL     1      10.492  -2.753  23.510  0.00  0.00    +0.000 OA
ATOM     19  H   UNL     1      10.496  -3.485  22.874  0.00  0.00    +0.000 HD
ENDBRANCH   4  18
BRANCH  11  20
ATOM     20  O   UNL     1       5.545   4.142  22.313  0.00  0.00    +0.000 OA
ATOM     21  H   UNL     1       4.786   3.891  21.758  0.00  0.00    +0.000 HD
ENDBRANCH  11  20
BRANCH  13  22
ATOM     22  O   UNL     1       9.619   1.959  21.339  0.00  0.00    +0.000 OA
ATOM     23  H   UNL     1       9.620   2.633  20.642  0.00  0.00    +0.000 HD
ENDBRANCH  13  22
TORSDOF 3
ENDMDL
MODEL 9
REMARK VINA RESULT:      -6.4      2.683      6.288
REMARK  Name = 
REMARK  4 active torsions:
REMARK  status: ('A' for Active; 'I' for Inactive)
REMARK    1  A    between atoms: C_1  and  C_2
REMARK    2  A    between atoms: C_4  and  O_5
REMARK    3  A    between atoms: C_12  and  O_13
REMARK    4  A    between atoms: C_15  and  O_16
REMARK                            x       y       z     vdW  Elec       q    Type
REMARK                         _______ _______ _______ _____ _____    ______ ____
ROOT
ATOM      1  C   UNL     1       6.882  -6.015  22.186  0.00  0.00    +0.000 C 
ATOM      2  C   UNL     1       6.782  -4.587  22.633  0.00  0.00    +0.000 A 
ATOM      3  C   UNL     1       5.709  -4.134  23.403  0.00  0.00    +0.000 A 
ATOM      4  C   UNL     1       5.641  -2.793  23.804  0.00  0.00    +0.000 A 
ATOM      5  C   UNL     1       6.646  -1.876  23.448  0.00  0.00    +0.000 A 
ATOM      6  C   UNL     1       6.609  -0.443  23.858  0.00  0.00    +0.000 C 
ATOM      7  O   UNL     1       5.682  -0.021  24.537  0.00  0.00    +0.000 OA
ATOM      8  C   UNL     1       7.710   0.472  23.439  0.00  0.00    +0.000 A 
ATOM      9  C   UNL     1       8.763  -0.026  22.668  0.00  0.00    +0.000 A 
ATOM     10  C   UNL     1       9.818   0.802  22.254  0.00  0.00    +0.000 A 
ATOM     11  C   UNL     1       9.817   2.140  22.614  0.00  0.00    +0.000 A 
ATOM     12  C   UNL     1       8.784   2.663  23.379  0.00  0.00    +0.000 A 
ATOM     13  C   UNL     1       7.737   1.834  23.789  0.00  0.00    +0.000 A 
ATOM     14  C   UNL     1       8.799  -1.439  22.266  0.00  0.00    +0.000 C 
ATOM     15  O   UNL     1       9.733  -1.860  21.589  0.00  0.00    +0.000 OA
ATOM     16  C   UNL     1       7.713  -2.340  22.679  0.00  0.00    +0.000 A 
ATOM     17  C   UNL     1       7.783  -3.683  22.274  0.00  0.00    +0.000 A 
ENDROOT
BRANCH   4  18
ATOM     18  O   UNL     1       4.568  -2.404  24.555  0.00  0.00    +0.000 OA
ATOM     19  H   UNL     1       4.234  -3.138  25.094  0.00  0.00    +0.000 HD
ENDBRANCH   4  18
BRANCH  11  20
ATOM     20  O   UNL     1      10.820   2.980  22.235  0.00  0.00    +0.000 OA
ATOM     21  H   UNL     1      10.515   3.900  22.325  0.00  0.00    +0.000 HD
ENDBRANCH  11  20
BRANCH  13  22
ATOM     22  O   UNL     1       6.740   2.389  24.540  0.00  0.00    +0.000 OA
ATOM     23  H   UNL     1       6.966   3.294  24.802  0.00  0.00    +0.000 HD
ENDBRANCH  13  22
TORSDOF 3
ENDMDL
