MODEL 1
REMARK VINA RESULT:      -4.7      0.000      0.000
REMARK  Name = 
REMARK  2 active torsions:
REMARK  status: ('A' for Active; 'I' for Inactive)
REMARK    1  A    between atoms: C_2  and  C_3
REMARK    2  A    between atoms: C_4  and  C_5
REMARK                            x       y       z     vdW  Elec       q    Type
REMARK                         _______ _______ _______ _____ _____    ______ ____
ROOT
ATOM      1  C   UNL     1      10.089  -0.681  23.298  0.00  0.00    +0.000 A 
ATOM      2  C   UNL     1      10.529   0.199  24.296  0.00  0.00    +0.000 A 
ATOM      3  C   UNL     1      10.595   1.575  24.059  0.00  0.00    +0.000 A 
ATOM      4  C   UNL     1      10.234   2.085  22.814  0.00  0.00    +0.000 A 
ATOM      5  C   UNL     1       9.825   1.220  21.803  0.00  0.00    +0.000 A 
ATOM      6  C   UNL     1       9.762  -0.156  22.040  0.00  0.00    +0.000 A 
ENDROOT
BRANCH   1   8
ATOM      7  C   UNL     1       9.146  -2.648  24.480  0.00  0.00    +0.000 C 
ATOM      8  C   UNL     1      10.012  -2.119  23.604  0.00  0.00    +0.000 C 
BRANCH   7  10
ATOM      9  O   UNL     1      10.206  -4.734  24.748  0.00  0.00    +0.000 OA
ATOM     10  C   UNL     1       9.165  -4.093  24.774  0.00  0.00    +0.000 C 
ENDBRANCH   7  10
ENDBRANCH   1   8
TORSDOF 2
ENDMDL
MODEL 2
REMARK VINA RESULT:      -4.7      0.068      1.525
REMARK  Name = 
REMARK  2 active torsions:
REMARK  status: ('A' for Active; 'I' for Inactive)
REMARK    1  A    between atoms: C_2  and  C_3
REMARK    2  A    between atoms: C_4  and  C_5
REMARK                            x       y       z     vdW  Elec       q    Type
REMARK                         _______ _______ _______ _____ _____    ______ ____
ROOT
ATOM      1  C   UNL     1      10.097  -0.671  23.371  0.00  0.00    +0.000 A 
ATOM      2  C   UNL     1       9.779  -0.161  22.106  0.00  0.00    +0.000 A 
ATOM      3  C   UNL     1       9.890   1.206  21.837  0.00  0.00    +0.000 A 
ATOM      4  C   UNL     1      10.307   2.082  22.837  0.00  0.00    +0.000 A 
ATOM      5  C   UNL     1      10.595   1.593  24.108  0.00  0.00    +0.000 A 
ATOM      6  C   UNL     1      10.483   0.226  24.377  0.00  0.00    +0.000 A 
ENDROOT
BRANCH   1   8
ATOM      7  C   UNL     1       9.179  -2.675  24.511  0.00  0.00    +0.000 C 
ATOM      8  C   UNL     1       9.991  -2.122  23.599  0.00  0.00    +0.000 C 
BRANCH   7  10
ATOM      9  O   UNL     1      10.207  -4.773  24.805  0.00  0.00    +0.000 OA
ATOM     10  C   UNL     1       9.167  -4.135  24.720  0.00  0.00    +0.000 C 
ENDBRANCH   7  10
ENDBRANCH   1   8
TORSDOF 2
ENDMDL
MODEL 3
REMARK VINA RESULT:      -4.7      3.895      5.795
REMARK  Name = 
REMARK  2 active torsions:
REMARK  status: ('A' for Active; 'I' for Inactive)
REMARK    1  A    between atoms: C_2  and  C_3
REMARK    2  A    between atoms: C_4  and  C_5
REMARK                            x       y       z     vdW  Elec       q    Type
REMARK                         _______ _______ _______ _____ _____    ______ ____
ROOT
ATOM      1  C   UNL     1      10.358   2.128  23.203  0.00  0.00    +0.000 A 
ATOM      2  C   UNL     1      10.664   1.191  24.199  0.00  0.00    +0.000 A 
ATOM      3  C   UNL     1      10.520  -0.179  23.961  0.00  0.00    +0.000 A 
ATOM      4  C   UNL     1      10.054  -0.627  22.727  0.00  0.00    +0.000 A 
ATOM      5  C   UNL     1       9.717   0.294  21.739  0.00  0.00    +0.000 A 
ATOM      6  C   UNL     1       9.858   1.663  21.978  0.00  0.00    +0.000 A 
ENDROOT
BRANCH   1   8
ATOM      7  C   UNL     1      11.725   4.192  23.363  0.00  0.00    +0.000 C 
ATOM      8  C   UNL     1      10.551   3.559  23.491  0.00  0.00    +0.000 C 
BRANCH   7  10
ATOM      9  O   UNL     1      12.779   6.017  24.414  0.00  0.00    +0.000 OA
ATOM     10  C   UNL     1      11.853   5.617  23.723  0.00  0.00    +0.000 C 
ENDBRANCH   7  10
ENDBRANCH   1   8
TORSDOF 2
ENDMDL
MODEL 4
REMARK VINA RESULT:      -4.6      3.847      5.888
REMARK  Name = 
REMARK  2 active torsions:
REMARK  status: ('A' for Active; 'I' for Inactive)
REMARK    1  A    between atoms: C_2  and  C_3
REMARK    2  A    between atoms: C_4  and  C_5
REMARK                            x       y       z     vdW  Elec       q    Type
REMARK                         _______ _______ _______ _____ _____    ______ ____
ROOT
ATOM      1  C   UNL     1      10.300   1.950  23.195  0.00  0.00    +0.000 A 
ATOM      2  C   UNL     1       9.825   1.566  21.934  0.00  0.00    +0.000 A 
ATOM      3  C   UNL     1       9.622   0.218  21.626  0.00  0.00    +0.000 A 
ATOM      4  C   UNL     1       9.906  -0.764  22.573  0.00  0.00    +0.000 A 
ATOM      5  C   UNL     1      10.408  -0.399  23.819  0.00  0.00    +0.000 A 
ATOM      6  C   UNL     1      10.613   0.949  24.126  0.00  0.00    +0.000 A 
ENDROOT
BRANCH   1   8
ATOM      7  C   UNL     1      11.639   4.032  23.361  0.00  0.00    +0.000 C 
ATOM      8  C   UNL     1      10.472   3.384  23.482  0.00  0.00    +0.000 C 
BRANCH   7  10
ATOM      9  O   UNL     1      12.747   5.903  24.266  0.00  0.00    +0.000 OA
ATOM     10  C   UNL     1      11.747   5.459  23.720  0.00  0.00    +0.000 C 
ENDBRANCH   7  10
ENDBRANCH   1   8
TORSDOF 2
ENDMDL
MODEL 5
REMARK VINA RESULT:      -3.9      2.451      2.828
REMARK  Name = 
REMARK  2 active torsions:
REMARK  status: ('A' for Active; 'I' for Inactive)
REMARK    1  A    between atoms: C_2  and  C_3
REMARK    2  A    between atoms: C_4  and  C_5
REMARK                            x       y       z     vdW  Elec       q    Type
REMARK                         _______ _______ _______ _____ _____    ______ ____
ROOT
ATOM      1  C   UNL     1       8.281  -1.335  22.498  0.00  0.00    +0.000 A 
ATOM      2  C   UNL     1       9.355  -0.805  21.771  0.00  0.00    +0.000 A 
ATOM      3  C   UNL     1       9.428   0.563  21.497  0.00  0.00    +0.000 A 
ATOM      4  C   UNL     1       8.418   1.417  21.935  0.00  0.00    +0.000 A 
ATOM      5  C   UNL     1       7.329   0.899  22.631  0.00  0.00    +0.000 A 
ATOM      6  C   UNL     1       7.255  -0.469  22.903  0.00  0.00    +0.000 A 
ENDROOT
BRANCH   1   8
ATOM      7  C   UNL     1       7.296  -3.609  22.366  0.00  0.00    +0.000 C 
ATOM      8  C   UNL     1       8.262  -2.779  22.785  0.00  0.00    +0.000 C 
BRANCH   7  10
ATOM      9  O   UNL     1       7.331  -5.915  21.890  0.00  0.00    +0.000 OA
ATOM     10  C   UNL     1       7.317  -5.035  22.740  0.00  0.00    +0.000 C 
ENDBRANCH   7  10
ENDBRANCH   1   8
TORSDOF 2
ENDMDL
MODEL 6
REMARK VINA RESULT:      -3.9      1.752      2.810
REMARK  Name = 
REMARK  2 active torsions:
REMARK  status: ('A' for Active; 'I' for Inactive)
REMARK    1  A    between atoms: C_2  and  C_3
REMARK    2  A    between atoms: C_4  and  C_5
REMARK                            x       y       z     vdW  Elec       q    Type
REMARK                         _______ _______ _______ _____ _____    ______ ____
ROOT
ATOM      1  C   UNL     1       9.046  -1.631  25.125  0.00  0.00    +0.000 A 
ATOM      2  C   UNL     1       9.479  -2.056  23.863  0.00  0.00    +0.000 A 
ATOM      3  C   UNL     1      10.239  -1.214  23.046  0.00  0.00    +0.000 A 
ATOM      4  C   UNL     1      10.564   0.070  23.479  0.00  0.00    +0.000 A 
ATOM      5  C   UNL     1      10.115   0.516  24.718  0.00  0.00    +0.000 A 
ATOM      6  C   UNL     1       9.352  -0.325  25.534  0.00  0.00    +0.000 A 
ENDROOT
BRANCH   1   8
ATOM      7  C   UNL     1       8.579  -3.858  26.115  0.00  0.00    +0.000 C 
ATOM      8  C   UNL     1       8.270  -2.563  25.961  0.00  0.00    +0.000 C 
BRANCH   7  10
ATOM      9  O   UNL     1       7.591  -5.927  26.650  0.00  0.00    +0.000 OA
ATOM     10  C   UNL     1       7.722  -4.743  26.926  0.00  0.00    +0.000 C 
ENDBRANCH   7  10
ENDBRANCH   1   8
TORSDOF 2
ENDMDL
MODEL 7
REMARK VINA RESULT:      -3.9      2.578      3.233
REMARK  Name = 
REMARK  2 active torsions:
REMARK  status: ('A' for Active; 'I' for Inactive)
REMARK    1  A    between atoms: C_2  and  C_3
REMARK    2  A    between atoms: C_4  and  C_5
REMARK                            x       y       z     vdW  Elec       q    Type
REMARK                         _______ _______ _______ _____ _____    ______ ____
ROOT
ATOM      1  C   UNL     1       8.847  -2.121  23.182  0.00  0.00    +0.000 A 
ATOM      2  C   UNL     1       9.029  -1.455  21.963  0.00  0.00    +0.000 A 
ATOM      3  C   UNL     1       9.782  -0.279  21.896  0.00  0.00    +0.000 A 
ATOM      4  C   UNL     1      10.349   0.252  23.052  0.00  0.00    +0.000 A 
ATOM      5  C   UNL     1      10.150  -0.382  24.275  0.00  0.00    +0.000 A 
ATOM      6  C   UNL     1       9.396  -1.557  24.342  0.00  0.00    +0.000 A 
ENDROOT
BRANCH   1   8
ATOM      7  C   UNL     1       7.206  -3.723  22.235  0.00  0.00    +0.000 C 
ATOM      8  C   UNL     1       8.069  -3.372  23.198  0.00  0.00    +0.000 C 
BRANCH   7  10
ATOM      9  O   UNL     1       5.297  -5.055  21.874  0.00  0.00    +0.000 OA
ATOM     10  C   UNL     1       6.421  -4.967  22.348  0.00  0.00    +0.000 C 
ENDBRANCH   7  10
ENDBRANCH   1   8
TORSDOF 2
ENDMDL
MODEL 8
REMARK VINA RESULT:      -3.9      1.668      2.368
REMARK  Name = 
REMARK  2 active torsions:
REMARK  status: ('A' for Active; 'I' for Inactive)
REMARK    1  A    between atoms: C_2  and  C_3
REMARK    2  A    between atoms: C_4  and  C_5
REMARK                            x       y       z     vdW  Elec       q    Type
REMARK                         _______ _______ _______ _____ _____    ______ ____
ROOT
ATOM      1  C   UNL     1       9.605   1.100  24.478  0.00  0.00    +0.000 A 
ATOM      2  C   UNL     1      10.556   1.812  23.735  0.00  0.00    +0.000 A 
ATOM      3  C   UNL     1      10.431   3.191  23.546  0.00  0.00    +0.000 A 
ATOM      4  C   UNL     1       9.342   3.872  24.087  0.00  0.00    +0.000 A 
ATOM      5  C   UNL     1       8.373   3.173  24.799  0.00  0.00    +0.000 A 
ATOM      6  C   UNL     1       8.497   1.793  24.986  0.00  0.00    +0.000 A 
ENDROOT
BRANCH   1   8
ATOM      7  C   UNL     1       8.955  -1.278  24.198  0.00  0.00    +0.000 C 
ATOM      8  C   UNL     1       9.795  -0.347  24.672  0.00  0.00    +0.000 C 
BRANCH   7  10
ATOM      9  O   UNL     1      10.177  -3.287  24.068  0.00  0.00    +0.000 OA
ATOM     10  C   UNL     1       9.182  -2.708  24.480  0.00  0.00    +0.000 C 
ENDBRANCH   7  10
ENDBRANCH   1   8
TORSDOF 2
ENDMDL
MODEL 9
REMARK VINA RESULT:      -3.9      4.274      6.260
REMARK  Name = 
REMARK  2 active torsions:
REMARK  status: ('A' for Active; 'I' for Inactive)
REMARK    1  A    between atoms: C_2  and  C_3
REMARK    2  A    between atoms: C_4  and  C_5
REMARK                            x       y       z     vdW  Elec       q    Type
REMARK                         _______ _______ _______ _____ _____    ______ ____
ROOT
ATOM      1  C   UNL     1       9.403   2.552  24.299  0.00  0.00    +0.000 A 
ATOM      2  C   UNL     1       8.442   1.786  24.970  0.00  0.00    +0.000 A 
ATOM      3  C   UNL     1       8.718   0.473  25.361  0.00  0.00    +0.000 A 
ATOM      4  C   UNL     1       9.958  -0.094  25.072  0.00  0.00    +0.000 A 
ATOM      5  C   UNL     1      10.911   0.645  24.378  0.00  0.00    +0.000 A 
ATOM      6  C   UNL     1      10.634   1.957  23.985  0.00  0.00    +0.000 A 
ENDROOT
BRANCH   1   8
ATOM      7  C   UNL     1       9.981   4.925  23.857  0.00  0.00    +0.000 C 
ATOM      8  C   UNL     1       9.075   3.940  23.931  0.00  0.00    +0.000 C 
BRANCH   7  10
ATOM      9  O   UNL     1       8.649   6.526  22.760  0.00  0.00    +0.000 OA
ATOM     10  C   UNL     1       9.568   6.303  23.535  0.00  0.00    +0.000 C 
ENDBRANCH   7  10
ENDBRANCH   1   8
TORSDOF 2
ENDMDL
