MODEL 1
REMARK VINA RESULT:      -4.7      0.000      0.000
REMARK  Name = 
REMARK  3 active torsions:
REMARK  status: ('A' for Active; 'I' for Inactive)
REMARK    1  A    between atoms: C_1  and  C_2
REMARK    2  A    between atoms: C_2  and  C_4
REMARK    3  A    between atoms: C_7  and  C_8
REMARK                            x       y       z     vdW  Elec       q    Type
REMARK                         _______ _______ _______ _____ _____    ______ ____
ROOT
ATOM      1  C   UNL     1      10.359   1.812  23.573  0.00  0.00    +0.000 C 
ATOM      2  C   UNL     1      10.109   1.549  22.077  0.00  0.00    +0.000 C 
ATOM      3  C   UNL     1       9.028   0.507  21.805  0.00  0.00    +0.000 C 
ATOM      4  C   UNL     1       9.248  -0.782  22.549  0.00  0.00    +0.000 C 
ATOM      5  C   UNL     1       8.322  -1.913  22.217  0.00  0.00    +0.000 C 
ATOM      6  O   UNL     1      10.594  -1.240  22.659  0.00  0.00    +0.000 OA
ATOM      7  C   UNL     1      10.009  -0.701  23.860  0.00  0.00    +0.000 C 
ATOM      8  C   UNL     1      10.760   0.523  24.312  0.00  0.00    +0.000 C 
ENDROOT
BRANCH   1  10
ATOM      9  C   UNL     1       8.269   1.923  25.160  0.00  0.00    +0.000 C 
ATOM     10  C   UNL     1       9.241   2.610  24.239  0.00  0.00    +0.000 C 
ATOM     11  C   UNL     1       9.151   3.942  24.047  0.00  0.00    +0.000 C 
ENDBRANCH   1  10
TORSDOF 1
ENDMDL
MODEL 2
REMARK VINA RESULT:      -4.6      3.868      5.613
REMARK  Name = 
REMARK  3 active torsions:
REMARK  status: ('A' for Active; 'I' for Inactive)
REMARK    1  A    between atoms: C_1  and  C_2
REMARK    2  A    between atoms: C_2  and  C_4
REMARK    3  A    between atoms: C_7  and  C_8
REMARK                            x       y       z     vdW  Elec       q    Type
REMARK                         _______ _______ _______ _____ _____    ______ ____
ROOT
ATOM      1  C   UNL     1       7.433  -2.657  23.677  0.00  0.00    +0.000 C 
ATOM      2  C   UNL     1       7.323  -4.122  24.136  0.00  0.00    +0.000 C 
ATOM      3  C   UNL     1       7.335  -5.131  22.990  0.00  0.00    +0.000 C 
ATOM      4  C   UNL     1       6.323  -4.825  21.922  0.00  0.00    +0.000 C 
ATOM      5  C   UNL     1       6.158  -5.850  20.841  0.00  0.00    +0.000 C 
ATOM      6  O   UNL     1       5.056  -4.334  22.356  0.00  0.00    +0.000 OA
ATOM      7  C   UNL     1       5.929  -3.369  21.739  0.00  0.00    +0.000 C 
ATOM      8  C   UNL     1       6.291  -2.282  22.715  0.00  0.00    +0.000 C 
ENDROOT
BRANCH   1  10
ATOM      9  C   UNL     1       8.998  -1.492  21.918  0.00  0.00    +0.000 C 
ATOM     10  C   UNL     1       8.830  -2.281  23.189  0.00  0.00    +0.000 C 
ATOM     11  C   UNL     1       9.914  -2.608  23.921  0.00  0.00    +0.000 C 
ENDBRANCH   1  10
TORSDOF 1
ENDMDL
MODEL 3
REMARK VINA RESULT:      -4.5      1.378      2.010
REMARK  Name = 
REMARK  3 active torsions:
REMARK  status: ('A' for Active; 'I' for Inactive)
REMARK    1  A    between atoms: C_1  and  C_2
REMARK    2  A    between atoms: C_2  and  C_4
REMARK    3  A    between atoms: C_7  and  C_8
REMARK                            x       y       z     vdW  Elec       q    Type
REMARK                         _______ _______ _______ _____ _____    ______ ____
ROOT
ATOM      1  C   UNL     1      10.039   0.393  22.977  0.00  0.00    +0.000 C 
ATOM      2  C   UNL     1       9.923  -0.557  21.771  0.00  0.00    +0.000 C 
ATOM      3  C   UNL     1       8.829  -1.612  21.920  0.00  0.00    +0.000 C 
ATOM      4  C   UNL     1       8.921  -2.384  23.206  0.00  0.00    +0.000 C 
ATOM      5  C   UNL     1       7.984  -3.543  23.361  0.00  0.00    +0.000 C 
ATOM      6  O   UNL     1      10.230  -2.721  23.662  0.00  0.00    +0.000 OA
ATOM      7  C   UNL     1       9.557  -1.677  24.391  0.00  0.00    +0.000 C 
ATOM      8  C   UNL     1      10.313  -0.381  24.279  0.00  0.00    +0.000 C 
ENDROOT
BRANCH   1  10
ATOM      9  C   UNL     1       8.334   2.009  21.803  0.00  0.00    +0.000 C 
ATOM     10  C   UNL     1       8.898   1.404  23.060  0.00  0.00    +0.000 C 
ATOM     11  C   UNL     1       8.356   1.718  24.255  0.00  0.00    +0.000 C 
ENDBRANCH   1  10
TORSDOF 1
ENDMDL
MODEL 4
REMARK VINA RESULT:      -4.4      1.373      2.215
REMARK  Name = 
REMARK  3 active torsions:
REMARK  status: ('A' for Active; 'I' for Inactive)
REMARK    1  A    between atoms: C_1  and  C_2
REMARK    2  A    between atoms: C_2  and  C_4
REMARK    3  A    between atoms: C_7  and  C_8
REMARK                            x       y       z     vdW  Elec       q    Type
REMARK                         _______ _______ _______ _____ _____    ______ ____
ROOT
ATOM      1  C   UNL     1       8.514   1.429  22.574  0.00  0.00    +0.000 C 
ATOM      2  C   UNL     1       7.503   0.451  23.200  0.00  0.00    +0.000 C 
ATOM      3  C   UNL     1       8.150  -0.679  23.997  0.00  0.00    +0.000 C 
ATOM      4  C   UNL     1       9.206  -1.419  23.224  0.00  0.00    +0.000 C 
ATOM      5  C   UNL     1       9.779  -2.642  23.874  0.00  0.00    +0.000 C 
ATOM      6  O   UNL     1       8.948  -1.650  21.840  0.00  0.00    +0.000 OA
ATOM      7  C   UNL     1       9.937  -0.646  22.139  0.00  0.00    +0.000 C 
ATOM      8  C   UNL     1       9.494   0.701  21.636  0.00  0.00    +0.000 C 
ENDROOT
BRANCH   1  10
ATOM      9  C   UNL     1      10.617   2.745  23.437  0.00  0.00    +0.000 C 
ATOM     10  C   UNL     1       9.172   2.353  23.595  0.00  0.00    +0.000 C 
ATOM     11  C   UNL     1       8.450   2.863  24.613  0.00  0.00    +0.000 C 
ENDBRANCH   1  10
TORSDOF 1
ENDMDL
MODEL 5
REMARK VINA RESULT:      -4.4      1.557      3.833
REMARK  Name = 
REMARK  3 active torsions:
REMARK  status: ('A' for Active; 'I' for Inactive)
REMARK    1  A    between atoms: C_1  and  C_2
REMARK    2  A    between atoms: C_2  and  C_4
REMARK    3  A    between atoms: C_7  and  C_8
REMARK                            x       y       z     vdW  Elec       q    Type
REMARK                         _______ _______ _______ _____ _____    ______ ____
ROOT
ATOM      1  C   UNL     1      10.050  -1.046  23.073  0.00  0.00    +0.000 C 
ATOM      2  C   UNL     1      10.537   0.017  24.074  0.00  0.00    +0.000 C 
ATOM      3  C   UNL     1       9.592   1.207  24.219  0.00  0.00    +0.000 C 
ATOM      4  C   UNL     1       9.225   1.835  22.903  0.00  0.00    +0.000 C 
ATOM      5  C   UNL     1       8.429   3.104  22.965  0.00  0.00    +0.000 C 
ATOM      6  O   UNL     1      10.257   1.927  21.923  0.00  0.00    +0.000 OA
ATOM      7  C   UNL     1       9.241   0.935  21.680  0.00  0.00    +0.000 C 
ATOM      8  C   UNL     1       9.841  -0.445  21.671  0.00  0.00    +0.000 C 
ENDROOT
BRANCH   1  10
ATOM      9  C   UNL     1       8.821  -2.263  25.049  0.00  0.00    +0.000 C 
ATOM     10  C   UNL     1       8.880  -1.875  23.596  0.00  0.00    +0.000 C 
ATOM     11  C   UNL     1       7.870  -2.218  22.771  0.00  0.00    +0.000 C 
ENDBRANCH   1  10
TORSDOF 1
ENDMDL
MODEL 6
REMARK VINA RESULT:      -4.3      1.956      3.963
REMARK  Name = 
REMARK  3 active torsions:
REMARK  status: ('A' for Active; 'I' for Inactive)
REMARK    1  A    between atoms: C_1  and  C_2
REMARK    2  A    between atoms: C_2  and  C_4
REMARK    3  A    between atoms: C_7  and  C_8
REMARK                            x       y       z     vdW  Elec       q    Type
REMARK                         _______ _______ _______ _____ _____    ______ ____
ROOT
ATOM      1  C   UNL     1       9.926  -0.407  24.799  0.00  0.00    +0.000 C 
ATOM      2  C   UNL     1       8.533   0.136  25.166  0.00  0.00    +0.000 C 
ATOM      3  C   UNL     1       7.857   0.915  24.041  0.00  0.00    +0.000 C 
ATOM      4  C   UNL     1       8.725   2.002  23.469  0.00  0.00    +0.000 C 
ATOM      5  C   UNL     1       8.083   2.917  22.471  0.00  0.00    +0.000 C 
ATOM      6  O   UNL     1       9.528   2.736  24.392  0.00  0.00    +0.000 OA
ATOM      7  C   UNL     1      10.228   1.800  23.550  0.00  0.00    +0.000 C 
ATOM      8  C   UNL     1      10.879   0.727  24.380  0.00  0.00    +0.000 C 
ENDROOT
BRANCH   1  10
ATOM      9  C   UNL     1      10.334  -1.423  22.411  0.00  0.00    +0.000 C 
ATOM     10  C   UNL     1       9.877  -1.590  23.835  0.00  0.00    +0.000 C 
ATOM     11  C   UNL     1       9.473  -2.802  24.269  0.00  0.00    +0.000 C 
ENDBRANCH   1  10
TORSDOF 1
ENDMDL
MODEL 7
REMARK VINA RESULT:      -4.3      2.138      3.226
REMARK  Name = 
REMARK  3 active torsions:
REMARK  status: ('A' for Active; 'I' for Inactive)
REMARK    1  A    between atoms: C_1  and  C_2
REMARK    2  A    between atoms: C_2  and  C_4
REMARK    3  A    between atoms: C_7  and  C_8
REMARK                            x       y       z     vdW  Elec       q    Type
REMARK                         _______ _______ _______ _____ _____    ______ ____
ROOT
ATOM      1  C   UNL     1       9.937  -1.478  22.640  0.00  0.00    +0.000 C 
ATOM      2  C   UNL     1       8.616  -1.739  21.893  0.00  0.00    +0.000 C 
ATOM      3  C   UNL     1       7.375  -1.624  22.775  0.00  0.00    +0.000 C 
ATOM      4  C   UNL     1       7.458  -2.453  24.026  0.00  0.00    +0.000 C 
ATOM      5  C   UNL     1       6.220  -2.523  24.868  0.00  0.00    +0.000 C 
ATOM      6  O   UNL     1       8.068  -3.738  23.908  0.00  0.00    +0.000 OA
ATOM      7  C   UNL     1       8.846  -2.729  24.581  0.00  0.00    +0.000 C 
ATOM      8  C   UNL     1      10.115  -2.446  23.823  0.00  0.00    +0.000 C 
ENDROOT
BRANCH   1  10
ATOM      9  C   UNL     1      10.667   0.387  24.340  0.00  0.00    +0.000 C 
ATOM     10  C   UNL     1      10.156  -0.006  22.979  0.00  0.00    +0.000 C 
ATOM     11  C   UNL     1       9.944   0.945  22.046  0.00  0.00    +0.000 C 
ENDBRANCH   1  10
TORSDOF 1
ENDMDL
MODEL 8
REMARK VINA RESULT:      -4.2      1.969      3.996
REMARK  Name = 
REMARK  3 active torsions:
REMARK  status: ('A' for Active; 'I' for Inactive)
REMARK    1  A    between atoms: C_1  and  C_2
REMARK    2  A    between atoms: C_2  and  C_4
REMARK    3  A    between atoms: C_7  and  C_8
REMARK                            x       y       z     vdW  Elec       q    Type
REMARK                         _______ _______ _______ _____ _____    ______ ____
ROOT
ATOM      1  C   UNL     1       8.460  -0.158  22.347  0.00  0.00    +0.000 C 
ATOM      2  C   UNL     1       9.425   0.692  21.501  0.00  0.00    +0.000 C 
ATOM      3  C   UNL     1      10.118   1.803  22.285  0.00  0.00    +0.000 C 
ATOM      4  C   UNL     1       9.160   2.675  23.049  0.00  0.00    +0.000 C 
ATOM      5  C   UNL     1       9.742   3.885  23.717  0.00  0.00    +0.000 C 
ATOM      6  O   UNL     1       7.926   2.991  22.407  0.00  0.00    +0.000 OA
ATOM      7  C   UNL     1       7.851   2.043  23.489  0.00  0.00    +0.000 C 
ATOM      8  C   UNL     1       7.364   0.709  22.991  0.00  0.00    +0.000 C 
ENDROOT
BRANCH   1  10
ATOM      9  C   UNL     1       8.681  -1.260  24.721  0.00  0.00    +0.000 C 
ATOM     10  C   UNL     1       9.174  -1.106  23.307  0.00  0.00    +0.000 C 
ATOM     11  C   UNL     1      10.216  -1.847  22.878  0.00  0.00    +0.000 C 
ENDBRANCH   1  10
TORSDOF 1
ENDMDL
MODEL 9
REMARK VINA RESULT:      -4.2      1.644      1.865
REMARK  Name = 
REMARK  3 active torsions:
REMARK  status: ('A' for Active; 'I' for Inactive)
REMARK    1  A    between atoms: C_1  and  C_2
REMARK    2  A    between atoms: C_2  and  C_4
REMARK    3  A    between atoms: C_7  and  C_8
REMARK                            x       y       z     vdW  Elec       q    Type
REMARK                         _______ _______ _______ _____ _____    ______ ____
ROOT
ATOM      1  C   UNL     1       8.938   2.640  23.517  0.00  0.00    +0.000 C 
ATOM      2  C   UNL     1      10.041   2.343  22.485  0.00  0.00    +0.000 C 
ATOM      3  C   UNL     1       9.994   0.925  21.921  0.00  0.00    +0.000 C 
ATOM      4  C   UNL     1       9.953  -0.135  22.986  0.00  0.00    +0.000 C 
ATOM      5  C   UNL     1      10.065  -1.556  22.521  0.00  0.00    +0.000 C 
ATOM      6  O   UNL     1      10.753   0.087  24.146  0.00  0.00    +0.000 OA
ATOM      7  C   UNL     1       9.332   0.247  24.318  0.00  0.00    +0.000 C 
ATOM      8  C   UNL     1       9.002   1.663  24.705  0.00  0.00    +0.000 C 
ENDROOT
BRANCH   1  10
ATOM      9  C   UNL     1       6.512   1.730  23.088  0.00  0.00    +0.000 C 
ATOM     10  C   UNL     1       7.554   2.798  22.892  0.00  0.00    +0.000 C 
ATOM     11  C   UNL     1       7.244   3.917  22.206  0.00  0.00    +0.000 C 
ENDBRANCH   1  10
TORSDOF 1
ENDMDL
