REMARK  Name = 
REMARK  17 active torsions:
REMARK  status: ('A' for Active; 'I' for Inactive)
REMARK    1  A    between atoms: C_1  and  C_2
REMARK    2  A    between atoms: C_4  and  O_5
REMARK    3  A    between atoms: O_5  and  C_6
REMARK    4  A    between atoms: C_6  and  C_7
REMARK    5  A    between atoms: C_9  and  O_10
REMARK    6  A    between atoms: O_10  and  C_11
REMARK    7  A    between atoms: C_12  and  C_24
REMARK    8  A    between atoms: C_16  and  O_17
REMARK    9  A    between atoms: C_19  and  O_20
REMARK   10  A    between atoms: C_26  and  O_27
REMARK   11  A    between atoms: C_28  and  O_29
REMARK   12  A    between atoms: C_32  and  O_33
REMARK   13  A    between atoms: C_34  and  O_35
REMARK   14  A    between atoms: C_36  and  O_37
REMARK   15  A    between atoms: C_38  and  O_39
REMARK   16  A    between atoms: C_40  and  O_41
REMARK   17  A    between atoms: C_42  and  O_43
REMARK                            x       y       z     vdW  Elec       q    Type
REMARK                         _______ _______ _______ _____ _____    ______ ____
ROOT
ATOM      1  C   UNL     1      -0.333   1.991  -3.587  0.00  0.00    +0.000 C 
ATOM      2  O   UNL     1       0.569   3.103  -3.782  0.00  0.00    +0.000 OA
ATOM      3  C   UNL     1       0.351   4.150  -2.795  0.00  0.00    +0.000 C 
ATOM      4  C   UNL     1      -1.040   4.792  -3.016  0.00  0.00    +0.000 C 
ATOM      5  C   UNL     1      -2.146   3.721  -3.102  0.00  0.00    +0.000 C 
ATOM      6  C   UNL     1      -1.758   2.476  -3.944  0.00  0.00    +0.000 C 
ENDROOT
BRANCH   4   7
ATOM      7  O   UNL     1      -1.373   5.741  -1.985  0.00  0.00    +0.000 OA
ATOM      8  H   UNL     1      -1.600   5.253  -1.169  0.00  0.00    +0.000 HD
ENDBRANCH   4   7
BRANCH   5   9
ATOM      9  O   UNL     1      -3.368   4.296  -3.615  0.00  0.00    +0.000 OA
ATOM     10  H   UNL     1      -3.149   5.027  -4.219  0.00  0.00    +0.000 HD
ENDBRANCH   5   9
BRANCH   6  11
ATOM     11  O   UNL     1      -2.698   1.432  -3.660  0.00  0.00    +0.000 OA
ATOM     12  H   UNL     1      -3.016   1.069  -4.503  0.00  0.00    +0.000 HD
ENDBRANCH   6  11
BRANCH   3  13
ATOM     13  O   UNL     1       1.379   5.146  -2.949  0.00  0.00    +0.000 OA
BRANCH  13  14
ATOM     14  C   UNL     1       1.791   5.947  -1.886  0.00  0.00    +0.000 A 
ATOM     15  C   UNL     1       2.341   7.160  -2.116  0.00  0.00    +0.000 A 
ATOM     16  O   UNL     1       2.850   8.013  -1.168  0.00  0.00    +0.000 OA
ATOM     17  C   UNL     1       2.997   7.576   0.103  0.00  0.00    +0.000 A 
ATOM     18  C   UNL     1       3.720   8.426   0.946  0.00  0.00    +0.000 A 
ATOM     19  C   UNL     1       3.900   8.076   2.271  0.00  0.00    +0.000 A 
ATOM     20  C   UNL     1       3.360   6.893   2.760  0.00  0.00    +0.000 A 
ATOM     21  C   UNL     1       2.632   6.054   1.904  0.00  0.00    +0.000 A 
ATOM     22  C   UNL     1       2.454   6.381   0.555  0.00  0.00    +0.000 A 
ATOM     23  C   UNL     1       1.728   5.534  -0.435  0.00  0.00    +0.000 A 
ATOM     24  O   UNL     1       1.089   4.558  -0.073  0.00  0.00    +0.000 OA
BRANCH  15  25
ATOM     25  C   UNL     1       2.504   7.803  -3.423  0.00  0.00    +0.000 A 
ATOM     26  C   UNL     1       1.589   8.805  -3.773  0.00  0.00    +0.000 A 
ATOM     27  C   UNL     1       1.920   9.702  -4.773  0.00  0.00    +0.000 A 
ATOM     28  C   UNL     1       3.139   9.598  -5.440  0.00  0.00    +0.000 A 
ATOM     29  C   UNL     1       4.028   8.572  -5.144  0.00  0.00    +0.000 A 
ATOM     30  C   UNL     1       3.715   7.677  -4.120  0.00  0.00    +0.000 A 
BRANCH  28  31
ATOM     31  O   UNL     1       3.531  10.560  -6.325  0.00  0.00    +0.000 OA
ATOM     32  H   UNL     1       3.370  11.408  -5.870  0.00  0.00    +0.000 HD
ENDBRANCH  28  31
BRANCH  27  33
ATOM     33  O   UNL     1       1.052  10.720  -5.040  0.00  0.00    +0.000 OA
ATOM     34  H   UNL     1       1.013  10.794  -6.010  0.00  0.00    +0.000 HD
ENDBRANCH  27  33
ENDBRANCH  15  25
BRANCH  19  35
ATOM     35  O   UNL     1       4.592   8.876   3.128  0.00  0.00    +0.000 OA
ATOM     36  H   UNL     1       4.919   9.656   2.647  0.00  0.00    +0.000 HD
ENDBRANCH  19  35
BRANCH  21  37
ATOM     37  O   UNL     1       2.112   4.896   2.407  0.00  0.00    +0.000 OA
ATOM     38  H   UNL     1       2.310   4.826   3.354  0.00  0.00    +0.000 HD
ENDBRANCH  21  37
ENDBRANCH  13  14
ENDBRANCH   3  13
BRANCH   1  39
ATOM     39  C   UNL     1       0.154   0.729  -4.395  0.00  0.00    +0.000 C 
BRANCH  39  40
ATOM     40  O   UNL     1       1.238   0.062  -3.690  0.00  0.00    +0.000 OA
BRANCH  40  44
ATOM     41  C   UNL     1       0.566  -4.301  -3.520  0.00  0.00    +0.000 C 
ATOM     42  C   UNL     1       1.217  -2.938  -3.258  0.00  0.00    +0.000 C 
ATOM     43  O   UNL     1       1.297  -2.222  -4.500  0.00  0.00    +0.000 OA
ATOM     44  C   UNL     1       1.954  -0.940  -4.436  0.00  0.00    +0.000 C 
ATOM     45  C   UNL     1       3.383  -1.128  -3.849  0.00  0.00    +0.000 C 
ATOM     46  C   UNL     1       3.328  -1.819  -2.480  0.00  0.00    +0.000 C 
ATOM     47  C   UNL     1       2.584  -3.155  -2.585  0.00  0.00    +0.000 C 
BRANCH  46  48
ATOM     48  O   UNL     1       4.657  -2.042  -1.982  0.00  0.00    +0.000 OA
ATOM     49  H   UNL     1       5.186  -2.369  -2.736  0.00  0.00    +0.000 HD
ENDBRANCH  46  48
BRANCH  45  50
ATOM     50  O   UNL     1       4.227  -1.921  -4.717  0.00  0.00    +0.000 OA
ATOM     51  H   UNL     1       3.705  -2.680  -5.037  0.00  0.00    +0.000 HD
ENDBRANCH  45  50
BRANCH  47  52
ATOM     52  O   UNL     1       2.406  -3.762  -1.297  0.00  0.00    +0.000 OA
ATOM     53  H   UNL     1       2.166  -3.067  -0.661  0.00  0.00    +0.000 HD
ENDBRANCH  47  52
ENDBRANCH  40  44
ENDBRANCH  39  40
ENDBRANCH   1  39
TORSDOF 16
