REMARK  Name = 
REMARK  5 active torsions:
REMARK  status: ('A' for Active; 'I' for Inactive)
REMARK    1  A    between atoms: O_1  and  C_2
REMARK    2  A    between atoms: C_5  and  C_8
REMARK    3  A    between atoms: C_9  and  O_10
REMARK    4  A    between atoms: C_17  and  O_18
REMARK    5  A    between atoms: C_20  and  O_21
REMARK                            x       y       z     vdW  Elec       q    Type
REMARK                         _______ _______ _______ _____ _____    ______ ____
ROOT
ATOM      1  C   UNL     1      -3.498   1.233  -0.280  0.00  0.00    +0.000 A 
ATOM      2  C   UNL     1      -3.986   1.070   0.965  0.00  0.00    +0.000 A 
ATOM      3  C   UNL     1      -5.448   0.908   0.930  0.00  0.00    +0.000 A 
ATOM      4  O   UNL     1      -6.015  -0.101   1.313  0.00  0.00    +0.000 OA
ATOM      5  C   UNL     1      -6.088   2.064   0.302  0.00  0.00    +0.000 A 
ATOM      6  C   UNL     1      -5.335   2.683  -0.709  0.00  0.00    +0.000 A 
ATOM      7  O   UNL     1      -4.143   2.124  -1.168  0.00  0.00    +0.000 OA
ATOM      8  C   UNL     1      -5.762   3.919  -1.186  0.00  0.00    +0.000 A 
ATOM      9  C   UNL     1      -6.920   4.490  -0.636  0.00  0.00    +0.000 A 
ATOM     10  C   UNL     1      -7.677   3.835   0.339  0.00  0.00    +0.000 A 
ATOM     11  C   UNL     1      -7.248   2.605   0.818  0.00  0.00    +0.000 A 
ENDROOT
BRANCH   1  15
ATOM     12  C   UNL     1       0.712   0.457  -0.490  0.00  0.00    +0.000 A 
ATOM     13  C   UNL     1      -0.088  -0.274   0.371  0.00  0.00    +0.000 A 
ATOM     14  C   UNL     1      -1.461  -0.045   0.362  0.00  0.00    +0.000 A 
ATOM     15  C   UNL     1      -2.054   0.946  -0.462  0.00  0.00    +0.000 A 
ATOM     16  C   UNL     1      -1.235   1.605  -1.377  0.00  0.00    +0.000 A 
ATOM     17  C   UNL     1       0.148   1.367  -1.383  0.00  0.00    +0.000 A 
BRANCH  12  18
ATOM     18  O   UNL     1       2.067   0.312  -0.480  0.00  0.00    +0.000 OA
ATOM     19  H   UNL     1       2.308  -0.312   0.227  0.00  0.00    +0.000 HD
ENDBRANCH  12  18
ENDBRANCH   1  15
BRANCH   2  20
ATOM     20  O   UNL     1      -3.478   1.887   1.987  0.00  0.00    +0.000 OA
ATOM     21  H   UNL     1      -2.918   2.564   1.557  0.00  0.00    +0.000 HD
ENDBRANCH   2  20
BRANCH   9  22
ATOM     22  O   UNL     1      -7.347   5.736  -0.996  0.00  0.00    +0.000 OA
ATOM     23  H   UNL     1      -6.653   6.174  -1.514  0.00  0.00    +0.000 HD
ENDBRANCH   9  22
BRANCH  11  24
ATOM     24  O   UNL     1      -7.912   1.986   1.833  0.00  0.00    +0.000 OA
ATOM     25  H   UNL     1      -8.733   2.459   2.029  0.00  0.00    +0.000 HD
ENDBRANCH  11  24
TORSDOF 5
