REMARK  Name = 
REMARK  3 active torsions:
REMARK  status: ('A' for Active; 'I' for Inactive)
REMARK    1  A    between atoms: C_1  and  C_2
REMARK    2  A    between atoms: C_2  and  C_4
REMARK    3  A    between atoms: C_7  and  C_8
REMARK                            x       y       z     vdW  Elec       q    Type
REMARK                         _______ _______ _______ _____ _____    ______ ____
ROOT
ATOM      1  C   UNL     1       3.146   0.899   0.570  0.00  0.00    +0.000 C 
ATOM      2  C   UNL     1       2.296   1.862   1.419  0.00  0.00    +0.000 C 
ATOM      3  C   UNL     1       1.451   2.830   0.595  0.00  0.00    +0.000 C 
ATOM      4  C   UNL     1       2.247   3.581  -0.436  0.00  0.00    +0.000 C 
ATOM      5  C   UNL     1       1.527   4.665  -1.180  0.00  0.00    +0.000 C 
ATOM      6  O   UNL     1       3.555   4.005  -0.056  0.00  0.00    +0.000 OA
ATOM      7  C   UNL     1       3.492   2.900  -0.978  0.00  0.00    +0.000 C 
ATOM      8  C   UNL     1       4.097   1.665  -0.367  0.00  0.00    +0.000 C 
ENDROOT
BRANCH   1  10
ATOM      9  C   UNL     1       1.877  -0.027  -1.535  0.00  0.00    +0.000 C 
ATOM     10  C   UNL     1       2.323  -0.194  -0.107  0.00  0.00    +0.000 C 
ATOM     11  C   UNL     1       2.037  -1.335   0.553  0.00  0.00    +0.000 C 
ENDBRANCH   1  10
TORSDOF 1
