REMARK  Name = 
REMARK  4 active torsions:
REMARK  status: ('A' for Active; 'I' for Inactive)
REMARK    1  A    between atoms: O_1  and  C_2
REMARK    2  A    between atoms: C_3  and  O_4
REMARK    3  A    between atoms: C_16  and  O_17
REMARK    4  A    between atoms: C_18  and  O_19
REMARK                            x       y       z     vdW  Elec       q    Type
REMARK                         _______ _______ _______ _____ _____    ______ ____
ROOT
ATOM      1  C   UNL     1       2.414  -0.064   0.084  0.00  0.00    +0.000 A 
ATOM      2  C   UNL     1       3.080  -1.290   0.086  0.00  0.00    +0.000 A 
ATOM      3  C   UNL     1       4.477  -1.293   0.089  0.00  0.00    +0.000 A 
ATOM      4  C   UNL     1       5.212  -0.111   0.091  0.00  0.00    +0.000 A 
ATOM      5  C   UNL     1       4.541   1.108   0.089  0.00  0.00    +0.000 A 
ATOM      6  C   UNL     1       3.140   1.132   0.085  0.00  0.00    +0.000 A 
ATOM      7  C   UNL     1       5.312   2.378   0.091  0.00  0.00    +0.000 A 
ATOM      8  O   UNL     1       4.749   3.465   0.090  0.00  0.00    +0.000 OA
ATOM      9  O   UNL     1       6.703   2.260   0.095  0.00  0.00    +0.000 OA
ATOM     10  C   UNL     1       7.378   1.019   0.096  0.00  0.00    +0.000 A 
ATOM     11  C   UNL     1       6.646  -0.165   0.094  0.00  0.00    +0.000 A 
ATOM     12  C   UNL     1       7.320  -1.388   0.095  0.00  0.00    +0.000 A 
ATOM     13  C   UNL     1       8.722  -1.428   0.098  0.00  0.00    +0.000 A 
ATOM     14  C   UNL     1       9.434  -0.232   0.099  0.00  0.00    +0.000 A 
ATOM     15  C   UNL     1       8.767   0.993   0.099  0.00  0.00    +0.000 A 
ATOM     16  C   UNL     1       6.546  -2.654   0.094  0.00  0.00    +0.000 A 
ATOM     17  O   UNL     1       7.111  -3.740   0.094  0.00  0.00    +0.000 OA
ATOM     18  O   UNL     1       5.158  -2.536   0.091  0.00  0.00    +0.000 OA
ENDROOT
BRANCH   1  19
ATOM     19  O   UNL     1       1.057   0.078   0.080  0.00  0.00    +0.000 OA
ATOM     20  H   UNL     1       0.602  -0.773   0.093  0.00  0.00    +0.000 HD
ENDBRANCH   1  19
BRANCH   2  21
ATOM     21  O   UNL     1       2.452  -2.501   0.086  0.00  0.00    +0.000 OA
ATOM     22  H   UNL     1       1.492  -2.416   0.072  0.00  0.00    +0.000 HD
ENDBRANCH   2  21
BRANCH  14  23
ATOM     23  O   UNL     1      10.801  -0.213   0.099  0.00  0.00    +0.000 OA
ATOM     24  H   UNL     1      11.129  -1.131   0.091  0.00  0.00    +0.000 HD
ENDBRANCH  14  23
BRANCH  15  25
ATOM     25  O   UNL     1       9.487   2.153   0.101  0.00  0.00    +0.000 OA
ATOM     26  H   UNL     1      10.426   1.878   0.105  0.00  0.00    +0.000 HD
ENDBRANCH  15  25
TORSDOF 4
