REMARK  Name = 
REMARK  3 active torsions:
REMARK  status: ('A' for Active; 'I' for Inactive)
REMARK    1  A    between atoms: C_1  and  C_2
REMARK    2  A    between atoms: C_2  and  C_4
REMARK    3  A    between atoms: C_7  and  C_8
REMARK                            x       y       z     vdW  Elec       q    Type
REMARK                         _______ _______ _______ _____ _____    ______ ____
ROOT
ATOM      1  C   UNL     1       3.446   0.970  -0.976  0.00  0.00    +0.000 C 
ATOM      2  C   UNL     1       3.180   0.435  -2.397  0.00  0.00    +0.000 C 
ATOM      3  C   UNL     1       3.726   1.383  -3.471  0.00  0.00    +0.000 C 
ATOM      4  C   UNL     1       3.445   2.840  -3.181  0.00  0.00    +0.000 C 
ATOM      5  C   UNL     1       3.804   3.820  -4.257  0.00  0.00    +0.000 C 
ATOM      6  C   UNL     1       2.933   3.246  -2.006  0.00  0.00    +0.000 C 
ATOM      7  C   UNL     1       2.679   2.311  -0.850  0.00  0.00    +0.000 C 
ENDROOT
BRANCH   1   9
ATOM      8  C   UNL     1       5.673  -0.311  -0.684  0.00  0.00    +0.000 C 
ATOM      9  C   UNL     1       4.947   1.011  -0.637  0.00  0.00    +0.000 C 
ATOM     10  C   UNL     1       5.630   2.119  -0.300  0.00  0.00    +0.000 C 
ENDBRANCH   1   9
TORSDOF 1
