REMARK  Name = 
REMARK  5 active torsions:
REMARK  status: ('A' for Active; 'I' for Inactive)
REMARK    1  A    between atoms: C_1  and  O_2
REMARK    2  A    between atoms: O_2  and  C_3
REMARK    3  A    between atoms: C_4  and  O_5
REMARK    4  A    between atoms: C_8  and  C_9
REMARK    5  A    between atoms: C_9  and  C_10
REMARK                            x       y       z     vdW  Elec       q    Type
REMARK                         _______ _______ _______ _____ _____    ______ ____
ROOT
ATOM      1  C   UNL     1       3.140  -1.192   0.086  0.00  0.00    +0.000 A 
ATOM      2  C   UNL     1       4.536  -1.277   0.066  0.00  0.00    +0.000 A 
ATOM      3  C   UNL     1       5.189  -2.503   0.058  0.00  0.00    +0.000 A 
ATOM      4  C   UNL     1       4.437  -3.677   0.058  0.00  0.00    +0.000 A 
ATOM      5  C   UNL     1       3.035  -3.624   0.061  0.00  0.00    +0.000 A 
ATOM      6  C   UNL     1       2.393  -2.372   0.091  0.00  0.00    +0.000 A 
ENDROOT
BRANCH   1   8
ATOM      7  C   UNL     1       1.216   0.201   0.090  0.00  0.00    +0.000 C 
ATOM      8  O   UNL     1       2.634   0.084   0.090  0.00  0.00    +0.000 OA
ENDBRANCH   1   8
BRANCH   2   9
ATOM      9  O   UNL     1       5.297  -0.140   0.052  0.00  0.00    +0.000 OA
ATOM     10  H   UNL     1       4.651   0.593   0.056  0.00  0.00    +0.000 HD
ENDBRANCH   2   9
BRANCH   5  11
ATOM     11  C   UNL     1       2.218  -4.896   0.032  0.00  0.00    +0.000 C 
BRANCH  11  12
ATOM     12  C   UNL     1       1.884  -5.412   1.403  0.00  0.00    +0.000 C 
ATOM     13  C   UNL     1       0.639  -5.617   1.850  0.00  0.00    +0.000 C 
ENDBRANCH  11  12
ENDBRANCH   5  11
TORSDOF 4
