REMARK  Name = 
REMARK  5 active torsions:
REMARK  status: ('A' for Active; 'I' for Inactive)
REMARK    1  A    between atoms: C_2  and  C_3
REMARK    2  A    between atoms: C_3  and  S_4
REMARK    3  A    between atoms: S_4  and  S_5
REMARK    4  A    between atoms: S_5  and  C_7
REMARK    5  A    between atoms: C_7  and  C_8
REMARK                            x       y       z     vdW  Elec       q    Type
REMARK                         _______ _______ _______ _____ _____    ______ ____
ROOT
ATOM      1  S   UNL     1       5.918  -1.450   2.453  0.00  0.00    +0.000 S 
ATOM      2  O   UNL     1       5.456  -2.863   2.237  0.00  0.00    +0.000 OA
ENDROOT
BRANCH   1   3
ATOM      3  S   UNL     1       5.107  -0.581   0.805  0.00  0.00    +0.000 S 
BRANCH   3   4
ATOM      4  C   UNL     1       3.339  -0.914   1.055  0.00  0.00    +0.000 C 
BRANCH   4   6
ATOM      5  C   UNL     1       1.580   0.588   0.064  0.00  0.00    +0.000 C 
ATOM      6  C   UNL     1       2.545  -0.335  -0.081  0.00  0.00    +0.000 C 
ENDBRANCH   4   6
ENDBRANCH   3   4
ENDBRANCH   1   3
BRANCH   1   7
ATOM      7  C   UNL     1       7.704  -1.356   2.075  0.00  0.00    +0.000 C 
BRANCH   7   8
ATOM      8  C   UNL     1       8.525  -1.953   3.183  0.00  0.00    +0.000 C 
ATOM      9  C   UNL     1       9.455  -1.281   3.881  0.00  0.00    +0.000 C 
ENDBRANCH   7   8
ENDBRANCH   1   7
TORSDOF 5
