REMARK  Name = 
REMARK  11 active torsions:
REMARK  status: ('A' for Active; 'I' for Inactive)
REMARK    1  A    between atoms: O_1  and  C_2
REMARK    2  A    between atoms: C_4  and  O_5
REMARK    3  A    between atoms: C_4  and  C_23
REMARK    4  A    between atoms: C_7  and  O_8
REMARK    5  A    between atoms: O_8  and  C_9
REMARK    6  A    between atoms: C_9  and  C_11
REMARK    7  A    between atoms: C_12  and  C_13
REMARK    8  A    between atoms: C_15  and  O_16
REMARK    9  A    between atoms: C_17  and  O_18
REMARK   10  A    between atoms: C_21  and  O_22
REMARK   11  A    between atoms: C_23  and  O_24
REMARK                            x       y       z     vdW  Elec       q    Type
REMARK                         _______ _______ _______ _____ _____    ______ ____
ROOT
ATOM      1  C   UNL     1       2.428  -0.115  -0.118  0.00  0.00    +0.000 C 
ATOM      2  C   UNL     1       2.904   0.953  -1.099  0.00  0.00    +0.000 C 
ATOM      3  C   UNL     1       2.520   0.616  -2.552  0.00  0.00    +0.000 C 
ATOM      4  C   UNL     1       3.011  -0.786  -2.925  0.00  0.00    +0.000 C 
ATOM      5  C   UNL     1       2.491  -1.865  -1.962  0.00  0.00    +0.000 C 
ATOM      6  C   UNL     1       2.903  -1.528  -0.514  0.00  0.00    +0.000 C 
ENDROOT
BRANCH   3   7
ATOM      7  O   UNL     1       1.094   0.700  -2.720  0.00  0.00    +0.000 OA
ATOM      8  H   UNL     1       0.681   0.308  -1.920  0.00  0.00    +0.000 HD
ENDBRANCH   3   7
BRANCH   1   9
ATOM      9  O   UNL     1       0.989  -0.094  -0.105  0.00  0.00    +0.000 OA
ATOM     10  H   UNL     1       0.725   0.701   0.400  0.00  0.00    +0.000 HD
ENDBRANCH   1   9
BRANCH   6  11
ATOM     11  O   UNL     1       2.337  -2.475   0.403  0.00  0.00    +0.000 OA
ATOM     12  H   UNL     1       1.384  -2.268   0.462  0.00  0.00    +0.000 HD
ENDBRANCH   6  11
BRANCH   3  13
ATOM     13  C   UNL     1       3.161   1.674  -3.471  0.00  0.00    +0.000 C 
ATOM     14  O   UNL     1       4.369   1.857  -3.558  0.00  0.00    +0.000 OA
BRANCH  13  15
ATOM     15  O   UNL     1       2.257   2.411  -4.153  0.00  0.00    +0.000 OA
ATOM     16  H   UNL     1       1.353   2.087  -3.946  0.00  0.00    +0.000 HD
ENDBRANCH  13  15
ENDBRANCH   3  13
BRANCH   5  17
ATOM     17  O   UNL     1       3.044  -3.147  -2.338  0.00  0.00    +0.000 OA
BRANCH  17  18
ATOM     18  C   UNL     1       2.395  -3.754  -3.370  0.00  0.00    +0.000 C 
ATOM     19  O   UNL     1       1.442  -3.303  -3.981  0.00  0.00    +0.000 OA
BRANCH  18  20
ATOM     20  C   UNL     1       3.030  -5.052  -3.655  0.00  0.00    +0.000 C 
ATOM     21  C   UNL     1       2.576  -5.789  -4.679  0.00  0.00    +0.000 C 
BRANCH  21  22
ATOM     22  C   UNL     1       3.106  -7.113  -5.042  0.00  0.00    +0.000 A 
ATOM     23  C   UNL     1       2.252  -8.052  -5.643  0.00  0.00    +0.000 A 
ATOM     24  C   UNL     1       2.753  -9.297  -6.011  0.00  0.00    +0.000 A 
ATOM     25  C   UNL     1       4.093  -9.608  -5.795  0.00  0.00    +0.000 A 
ATOM     26  C   UNL     1       4.951  -8.689  -5.216  0.00  0.00    +0.000 A 
ATOM     27  C   UNL     1       4.458  -7.439  -4.846  0.00  0.00    +0.000 A 
BRANCH  24  28
ATOM     28  O   UNL     1       1.968 -10.254  -6.593  0.00  0.00    +0.000 OA
ATOM     29  H   UNL     1       1.071  -9.892  -6.694  0.00  0.00    +0.000 HD
ENDBRANCH  24  28
BRANCH  25  30
ATOM     30  O   UNL     1       4.580 -10.829  -6.164  0.00  0.00    +0.000 OA
ATOM     31  H   UNL     1       3.813 -11.290  -6.558  0.00  0.00    +0.000 HD
ENDBRANCH  25  30
ENDBRANCH  21  22
ENDBRANCH  18  20
ENDBRANCH  17  18
ENDBRANCH   5  17
TORSDOF 11
