REMARK  Name = 
REMARK  6 active torsions:
REMARK  status: ('A' for Active; 'I' for Inactive)
REMARK    1  A    between atoms: O_1  and  C_2
REMARK    2  A    between atoms: C_5  and  O_6
REMARK    3  A    between atoms: C_8  and  O_9
REMARK    4  A    between atoms: C_13  and  C_14
REMARK    5  A    between atoms: C_16  and  O_17
REMARK    6  A    between atoms: C_18  and  O_19
REMARK                            x       y       z     vdW  Elec       q    Type
REMARK                         _______ _______ _______ _____ _____    ______ ____
ROOT
ATOM      1  C   UNL     1       2.446  -0.052  -0.062  0.00  0.00    +0.000 C 
ATOM      2  C   UNL     1       2.953   1.293   0.461  0.00  0.00    +0.000 C 
ATOM      3  C   UNL     1       4.434   1.265   0.729  0.00  0.00    +0.000 A 
ATOM      4  C   UNL     1       5.179   2.443   0.903  0.00  0.00    +0.000 A 
ATOM      5  C   UNL     1       6.556   2.406   1.114  0.00  0.00    +0.000 A 
ATOM      6  C   UNL     1       7.204   1.179   1.162  0.00  0.00    +0.000 A 
ATOM      7  C   UNL     1       6.491  -0.004   1.019  0.00  0.00    +0.000 A 
ATOM      8  C   UNL     1       5.109   0.037   0.822  0.00  0.00    +0.000 A 
ATOM      9  O   UNL     1       4.495  -1.185   0.701  0.00  0.00    +0.000 OA
ATOM     10  C   UNL     1       3.063  -1.155   0.817  0.00  0.00    +0.000 C 
ENDROOT
BRANCH  10  11
ATOM     11  C   UNL     1       2.478  -2.531   0.530  0.00  0.00    +0.000 A 
ATOM     12  C   UNL     1       3.077  -3.407  -0.390  0.00  0.00    +0.000 A 
ATOM     13  C   UNL     1       2.533  -4.672  -0.596  0.00  0.00    +0.000 A 
ATOM     14  C   UNL     1       1.391  -5.072   0.093  0.00  0.00    +0.000 A 
ATOM     15  C   UNL     1       0.767  -4.214   0.985  0.00  0.00    +0.000 A 
ATOM     16  C   UNL     1       1.307  -2.944   1.200  0.00  0.00    +0.000 A 
BRANCH  13  17
ATOM     17  O   UNL     1       3.092  -5.566  -1.467  0.00  0.00    +0.000 OA
ATOM     18  H   UNL     1       3.872  -5.138  -1.863  0.00  0.00    +0.000 HD
ENDBRANCH  13  17
BRANCH  14  19
ATOM     19  O   UNL     1       0.876  -6.321  -0.105  0.00  0.00    +0.000 OA
ATOM     20  H   UNL     1       1.482  -6.731  -0.753  0.00  0.00    +0.000 HD
ENDBRANCH  14  19
ENDBRANCH  10  11
BRANCH   4  21
ATOM     21  O   UNL     1       4.622   3.692   0.878  0.00  0.00    +0.000 OA
ATOM     22  H   UNL     1       3.657   3.627   0.826  0.00  0.00    +0.000 HD
ENDBRANCH   4  21
BRANCH   6  23
ATOM     23  O   UNL     1       8.552   1.098   1.356  0.00  0.00    +0.000 OA
ATOM     24  H   UNL     1       8.910   2.000   1.419  0.00  0.00    +0.000 HD
ENDBRANCH   6  23
BRANCH   1  25
ATOM     25  O   UNL     1       2.802  -0.208  -1.444  0.00  0.00    +0.000 OA
ATOM     26  H   UNL     1       2.498   0.576  -1.931  0.00  0.00    +0.000 HD
ENDBRANCH   1  25
TORSDOF 6
