REMARK  Name = 
REMARK  12 active torsions:
REMARK  status: ('A' for Active; 'I' for Inactive)
REMARK    1  A    between atoms: O_1  and  C_2
REMARK    2  A    between atoms: C_2  and  C_3
REMARK    3  A    between atoms: C_5  and  O_6
REMARK    4  A    between atoms: O_6  and  C_7
REMARK    5  A    between atoms: C_8  and  C_20
REMARK    6  A    between atoms: C_12  and  O_13
REMARK    7  A    between atoms: C_15  and  O_16
REMARK    8  A    between atoms: C_23  and  O_24
REMARK    9  A    between atoms: C_25  and  O_26
REMARK   10  A    between atoms: C_28  and  O_29
REMARK   11  A    between atoms: C_30  and  O_31
REMARK   12  A    between atoms: C_32  and  O_33
REMARK                            x       y       z     vdW  Elec       q    Type
REMARK                         _______ _______ _______ _____ _____    ______ ____
ROOT
ATOM      1  C   UNL     1       4.468  -3.637  -3.429  0.00  0.00    +0.000 A 
ATOM      2  C   UNL     1       5.442  -3.792  -2.490  0.00  0.00    +0.000 A 
ATOM      3  O   UNL     1       6.750  -4.171  -2.793  0.00  0.00    +0.000 OA
ATOM      4  C   UNL     1       7.058  -4.587  -4.055  0.00  0.00    +0.000 A 
ATOM      5  C   UNL     1       6.178  -4.471  -5.109  0.00  0.00    +0.000 A 
ATOM      6  C   UNL     1       6.545  -4.895  -6.394  0.00  0.00    +0.000 A 
ATOM      7  C   UNL     1       7.807  -5.438  -6.613  0.00  0.00    +0.000 A 
ATOM      8  C   UNL     1       8.688  -5.546  -5.540  0.00  0.00    +0.000 A 
ATOM      9  C   UNL     1       8.329  -5.129  -4.255  0.00  0.00    +0.000 A 
ATOM     10  C   UNL     1       4.874  -3.883  -4.852  0.00  0.00    +0.000 A 
ATOM     11  O   UNL     1       4.177  -3.646  -5.835  0.00  0.00    +0.000 OA
ENDROOT
BRANCH   2  12
ATOM     12  C   UNL     1       5.301  -3.616  -1.005  0.00  0.00    +0.000 A 
ATOM     13  C   UNL     1       4.474  -2.653  -0.398  0.00  0.00    +0.000 A 
ATOM     14  C   UNL     1       4.383  -2.547   1.004  0.00  0.00    +0.000 A 
ATOM     15  C   UNL     1       5.121  -3.406   1.808  0.00  0.00    +0.000 A 
ATOM     16  C   UNL     1       5.995  -4.313   1.232  0.00  0.00    +0.000 A 
ATOM     17  C   UNL     1       6.094  -4.417  -0.151  0.00  0.00    +0.000 A 
BRANCH  15  18
ATOM     18  O   UNL     1       5.001  -3.417   3.169  0.00  0.00    +0.000 OA
ATOM     19  H   UNL     1       4.082  -3.171   3.377  0.00  0.00    +0.000 HD
ENDBRANCH  15  18
BRANCH  16  20
ATOM     20  O   UNL     1       6.740  -5.141   2.023  0.00  0.00    +0.000 OA
ATOM     21  H   UNL     1       6.486  -4.908   2.939  0.00  0.00    +0.000 HD
ENDBRANCH  16  20
ENDBRANCH   2  12
BRANCH   8  22
ATOM     22  O   UNL     1       9.942  -6.059  -5.704  0.00  0.00    +0.000 OA
ATOM     23  H   UNL     1      10.067  -6.292  -6.640  0.00  0.00    +0.000 HD
ENDBRANCH   8  22
BRANCH   6  24
ATOM     24  O   UNL     1       5.709  -4.813  -7.474  0.00  0.00    +0.000 OA
ATOM     25  H   UNL     1       4.885  -4.363  -7.174  0.00  0.00    +0.000 HD
ENDBRANCH   6  24
BRANCH   1  26
ATOM     26  O   UNL     1       3.166  -3.275  -3.122  0.00  0.00    +0.000 OA
BRANCH  26  29
ATOM     27  C   UNL     1       0.970  -2.470  -5.993  0.00  0.00    +0.000 C 
ATOM     28  O   UNL     1       2.021  -2.420  -5.013  0.00  0.00    +0.000 OA
ATOM     29  C   UNL     1       2.115  -3.528  -4.104  0.00  0.00    +0.000 C 
ATOM     30  C   UNL     1       0.801  -3.635  -3.307  0.00  0.00    +0.000 C 
ATOM     31  C   UNL     1      -0.396  -3.754  -4.248  0.00  0.00    +0.000 C 
ATOM     32  C   UNL     1      -0.400  -2.686  -5.341  0.00  0.00    +0.000 C 
BRANCH  31  33
ATOM     33  O   UNL     1      -1.612  -3.617  -3.471  0.00  0.00    +0.000 OA
ATOM     34  H   UNL     1      -1.627  -2.729  -3.069  0.00  0.00    +0.000 HD
ENDBRANCH  31  33
BRANCH  32  35
ATOM     35  O   UNL     1      -1.435  -2.948  -6.290  0.00  0.00    +0.000 OA
ATOM     36  H   UNL     1      -2.195  -3.301  -5.786  0.00  0.00    +0.000 HD
ENDBRANCH  32  35
BRANCH  30  37
ATOM     37  O   UNL     1       0.807  -4.764  -2.416  0.00  0.00    +0.000 OA
ATOM     38  H   UNL     1      -0.110  -4.871  -2.098  0.00  0.00    +0.000 HD
ENDBRANCH  30  37
BRANCH  27  39
ATOM     39  C   UNL     1       1.271  -3.282  -7.272  0.00  0.00    +0.000 C 
BRANCH  39  40
ATOM     40  O   UNL     1       1.432  -4.678  -7.059  0.00  0.00    +0.000 OA
ATOM     41  H   UNL     1       1.698  -5.048  -7.921  0.00  0.00    +0.000 HD
ENDBRANCH  39  40
ENDBRANCH  27  39
ENDBRANCH  26  29
ENDBRANCH   1  26
TORSDOF 12
