REMARK  Name = 
REMARK  17 active torsions:
REMARK  status: ('A' for Active; 'I' for Inactive)
REMARK    1  A    between atoms: C_1  and  C_2
REMARK    2  A    between atoms: C_2  and  C_3
REMARK    3  A    between atoms: C_2  and  C_4
REMARK    4  A    between atoms: C_7  and  C_8
REMARK    5  A    between atoms: C_9  and  C_20
REMARK    6  A    between atoms: C_10  and  O_11
REMARK    7  A    between atoms: C_13  and  C_14
REMARK    8  A    between atoms: C_16  and  O_17
REMARK    9  A    between atoms: C_18  and  O_19
REMARK   10  A    between atoms: C_21  and  O_22
REMARK   11  A    between atoms: C_24  and  C_25
REMARK   12  A    between atoms: C_27  and  O_28
REMARK   13  A    between atoms: C_29  and  O_30
REMARK   14  A    between atoms: C_31  and  C_32
REMARK   15  A    between atoms: C_32  and  C_33
REMARK   16  A    between atoms: C_32  and  C_34
REMARK   17  A    between atoms: C_37  and  C_38
REMARK                            x       y       z     vdW  Elec       q    Type
REMARK                         _______ _______ _______ _____ _____    ______ ____
ROOT
ATOM      1  C   UNL     1       2.902   0.538  -1.230  0.00  0.00    +0.000 A 
ATOM      2  C   UNL     1       3.308  -0.341  -2.295  0.00  0.00    +0.000 A 
ATOM      3  C   UNL     1       3.434  -1.731  -2.093  0.00  0.00    +0.000 A 
ATOM      4  C   UNL     1       3.784  -2.662  -3.096  0.00  0.00    +0.000 A 
ATOM      5  C   UNL     1       3.815  -4.108  -2.644  0.00  0.00    +0.000 C 
ATOM      6  C   UNL     1       4.143  -2.203  -4.385  0.00  0.00    +0.000 A 
ATOM      7  C   UNL     1       4.122  -0.791  -4.556  0.00  0.00    +0.000 A 
ATOM      8  C   UNL     1       3.623   0.159  -3.592  0.00  0.00    +0.000 A 
ATOM      9  C   UNL     1       3.454   1.565  -3.814  0.00  0.00    +0.000 A 
ATOM     10  C   UNL     1       3.138   2.420  -2.754  0.00  0.00    +0.000 A 
ATOM     11  C   UNL     1       2.902   1.912  -1.483  0.00  0.00    +0.000 A 
ENDROOT
BRANCH   6  12
ATOM     12  C   UNL     1       4.563  -3.144  -5.493  0.00  0.00    +0.000 A 
ATOM     13  C   UNL     1       5.544  -4.146  -5.268  0.00  0.00    +0.000 A 
ATOM     14  C   UNL     1       5.843  -5.229  -6.161  0.00  0.00    +0.000 A 
ATOM     15  C   UNL     1       6.662  -6.352  -5.833  0.00  0.00    +0.000 A 
ATOM     16  C   UNL     1       7.038  -7.264  -6.828  0.00  0.00    +0.000 A 
ATOM     17  C   UNL     1       6.560  -7.138  -8.120  0.00  0.00    +0.000 A 
ATOM     18  C   UNL     1       5.634  -6.152  -8.470  0.00  0.00    +0.000 A 
ATOM     19  C   UNL     1       5.297  -5.163  -7.475  0.00  0.00    +0.000 A 
ATOM     20  C   UNL     1       4.438  -4.074  -7.750  0.00  0.00    +0.000 A 
ATOM     21  C   UNL     1       4.026  -3.110  -6.800  0.00  0.00    +0.000 A 
ATOM     22  C   UNL     1       3.088  -2.048  -7.326  0.00  0.00    +0.000 C 
BRANCH  18  23
ATOM     23  C   UNL     1       5.033  -6.113  -9.885  0.00  0.00    +0.000 C 
ATOM     24  C   UNL     1       5.911  -5.273 -10.814  0.00  0.00    +0.000 C 
ATOM     25  C   UNL     1       4.712  -7.469 -10.538  0.00  0.00    +0.000 C 
ENDBRANCH  18  23
BRANCH  15  26
ATOM     26  C   UNL     1       7.066  -6.672  -4.439  0.00  0.00    +0.000 C 
ATOM     27  O   UNL     1       7.840  -7.601  -4.202  0.00  0.00    +0.000 OA
ENDBRANCH  15  26
BRANCH  16  28
ATOM     28  O   UNL     1       7.866  -8.344  -6.607  0.00  0.00    +0.000 OA
ATOM     29  H   UNL     1       8.097  -8.362  -5.647  0.00  0.00    +0.000 HD
ENDBRANCH  16  28
BRANCH  17  30
ATOM     30  O   UNL     1       7.045  -8.026  -9.042  0.00  0.00    +0.000 OA
ATOM     31  H   UNL     1       7.647  -8.611  -8.535  0.00  0.00    +0.000 HD
ENDBRANCH  17  30
BRANCH  13  32
ATOM     32  O   UNL     1       6.386  -4.014  -4.178  0.00  0.00    +0.000 OA
ATOM     33  H   UNL     1       6.246  -3.150  -3.752  0.00  0.00    +0.000 HD
ENDBRANCH  13  32
ENDBRANCH   6  12
BRANCH   1  35
ATOM     34  C   UNL     1       3.720  -0.165   1.054  0.00  0.00    +0.000 C 
ATOM     35  C   UNL     1       2.495  -0.002   0.151  0.00  0.00    +0.000 C 
ATOM     36  C   UNL     1       1.394   0.772   0.894  0.00  0.00    +0.000 C 
ENDBRANCH   1  35
BRANCH  10  37
ATOM     37  O   UNL     1       3.019   3.789  -2.864  0.00  0.00    +0.000 OA
ATOM     38  H   UNL     1       3.163   4.027  -3.811  0.00  0.00    +0.000 HD
ENDBRANCH  10  37
BRANCH  11  39
ATOM     39  O   UNL     1       2.668   2.821  -0.488  0.00  0.00    +0.000 OA
ATOM     40  H   UNL     1       2.720   3.696  -0.928  0.00  0.00    +0.000 HD
ENDBRANCH  11  39
BRANCH   7  41
ATOM     41  O   UNL     1       4.744  -0.248  -5.662  0.00  0.00    +0.000 OA
ATOM     42  H   UNL     1       5.286  -0.926  -6.100  0.00  0.00    +0.000 HD
ENDBRANCH   7  41
BRANCH   9  43
ATOM     43  C   UNL     1       3.517   2.178  -5.167  0.00  0.00    +0.000 C 
ATOM     44  O   UNL     1       3.466   3.400  -5.309  0.00  0.00    +0.000 OA
ENDBRANCH   9  43
TORSDOF 11
