REMARK  Name = 
REMARK  2 active torsions:
REMARK  status: ('A' for Active; 'I' for Inactive)
REMARK    1  A    between atoms: C_2  and  C_3
REMARK    2  A    between atoms: C_4  and  C_5
REMARK                            x       y       z     vdW  Elec       q    Type
REMARK                         _______ _______ _______ _____ _____    ______ ____
ROOT
ATOM      1  C   UNL     1       5.244  -1.690   1.983  0.00  0.00    +0.000 A 
ATOM      2  C   UNL     1       6.438  -1.170   2.499  0.00  0.00    +0.000 A 
ATOM      3  C   UNL     1       7.265  -1.949   3.313  0.00  0.00    +0.000 A 
ATOM      4  C   UNL     1       6.899  -3.255   3.632  0.00  0.00    +0.000 A 
ATOM      5  C   UNL     1       5.700  -3.774   3.152  0.00  0.00    +0.000 A 
ATOM      6  C   UNL     1       4.872  -2.994   2.340  0.00  0.00    +0.000 A 
ENDROOT
BRANCH   1   8
ATOM      7  C   UNL     1       3.612  -1.319   0.151  0.00  0.00    +0.000 C 
ATOM      8  C   UNL     1       4.419  -0.840   1.108  0.00  0.00    +0.000 C 
BRANCH   7  10
ATOM      9  O   UNL     1       2.104  -0.825  -1.589  0.00  0.00    +0.000 OA
ATOM     10  C   UNL     1       2.857  -0.402  -0.723  0.00  0.00    +0.000 C 
ENDBRANCH   7  10
ENDBRANCH   1   8
TORSDOF 2
