REMARK  Name = 
REMARK  13 active torsions:
REMARK  status: ('A' for Active; 'I' for Inactive)
REMARK    1  A    between atoms: C_2  and  C_25
REMARK    2  A    between atoms: C_13  and  O_14
REMARK    3  A    between atoms: C_17  and  C_18
REMARK    4  A    between atoms: C_23  and  C_24
REMARK    5  A    between atoms: C_25  and  C_26
REMARK    6  A    between atoms: C_25  and  C_27
REMARK    7  A    between atoms: C_27  and  C_28
REMARK    8  A    between atoms: C_28  and  C_29
REMARK    9  A    between atoms: C_29  and  C_30
REMARK   10  A    between atoms: C_29  and  C_32
REMARK   11  A    between atoms: C_30  and  C_31
REMARK   12  A    between atoms: C_32  and  C_33
REMARK   13  A    between atoms: C_32  and  C_34
REMARK                            x       y       z     vdW  Elec       q    Type
REMARK                         _______ _______ _______ _____ _____    ______ ____
ROOT
ATOM      1  C   UNL     1       2.028   0.105   0.149  0.00  0.00    +0.000 C 
ATOM      2  C   UNL     1       2.666   1.389   0.751  0.00  0.00    +0.000 C 
ATOM      3  C   UNL     1       3.887   0.949   1.561  0.00  0.00    +0.000 C 
ATOM      4  C   UNL     1       4.099  -0.500   1.158  0.00  0.00    +0.000 C 
ATOM      5  C   UNL     1       4.953  -1.367   2.085  0.00  0.00    +0.000 C 
ATOM      6  C   UNL     1       6.350  -0.765   2.288  0.00  0.00    +0.000 C 
ATOM      7  C   UNL     1       7.284  -1.710   2.972  0.00  0.00    +0.000 C 
ATOM      8  C   UNL     1       7.066  -3.030   3.112  0.00  0.00    +0.000 C 
ATOM      9  C   UNL     1       8.067  -3.884   3.857  0.00  0.00    +0.000 C 
ATOM     10  C   UNL     1       8.487  -5.112   3.050  0.00  0.00    +0.000 C 
ATOM     11  C   UNL     1       7.277  -5.900   2.554  0.00  0.00    +0.000 C 
ATOM     12  C   UNL     1       6.313  -5.014   1.762  0.00  0.00    +0.000 C 
ATOM     13  C   UNL     1       5.835  -3.749   2.531  0.00  0.00    +0.000 C 
ATOM     14  C   UNL     1       4.925  -4.175   3.710  0.00  0.00    +0.000 C 
ATOM     15  C   UNL     1       5.059  -2.810   1.518  0.00  0.00    +0.000 C 
ATOM     16  C   UNL     1       3.697  -3.385   1.021  0.00  0.00    +0.000 C 
ATOM     17  C   UNL     1       2.833  -2.389   0.217  0.00  0.00    +0.000 C 
ATOM     18  C   UNL     1       2.667  -1.057   0.973  0.00  0.00    +0.000 C 
ATOM     19  C   UNL     1       1.941  -1.317   2.305  0.00  0.00    +0.000 C 
ENDROOT
BRANCH   1  20
ATOM     20  C   UNL     1       0.483   0.203  -0.054  0.00  0.00    +0.000 C 
ATOM     21  C   UNL     1      -0.365   0.347   1.221  0.00  0.00    +0.000 C 
BRANCH  20  22
ATOM     22  C   UNL     1       0.096   1.406  -0.962  0.00  0.00    +0.000 C 
BRANCH  22  23
ATOM     23  C   UNL     1       0.669   1.398  -2.381  0.00  0.00    +0.000 C 
BRANCH  23  24
ATOM     24  C   UNL     1       0.266   0.191  -3.272  0.00  0.00    +0.000 C 
BRANCH  24  25
ATOM     25  C   UNL     1       0.967   0.283  -4.665  0.00  0.00    +0.000 C 
ATOM     26  C   UNL     1       2.501   0.299  -4.540  0.00  0.00    +0.000 C 
ATOM     27  C   UNL     1       0.586  -0.874  -5.596  0.00  0.00    +0.000 C 
ENDBRANCH  24  25
BRANCH  24  28
ATOM     28  C   UNL     1      -1.275   0.036  -3.370  0.00  0.00    +0.000 C 
ATOM     29  C   UNL     1      -2.002   1.178  -4.072  0.00  0.00    +0.000 C 
ENDBRANCH  24  28
ENDBRANCH  23  24
ENDBRANCH  22  23
ENDBRANCH  20  22
ENDBRANCH   1  20
BRANCH  10  30
ATOM     30  O   UNL     1       9.307  -5.962   3.850  0.00  0.00    +0.000 OA
ATOM     31  H   UNL     1       8.781  -6.247   4.617  0.00  0.00    +0.000 HD
ENDBRANCH  10  30
TORSDOF 7
