REMARK  Name = 
REMARK  3 active torsions:
REMARK  status: ('A' for Active; 'I' for Inactive)
REMARK    1  A    between atoms: C_1  and  C_2
REMARK    2  A    between atoms: C_8  and  C_9
REMARK    3  A    between atoms: C_8  and  C_10
REMARK                            x       y       z     vdW  Elec       q    Type
REMARK                         _______ _______ _______ _____ _____    ______ ____
ROOT
ATOM      1  C   UNL     1       0.995   0.085  -0.100  0.00  0.00    +0.000 C 
ATOM      2  C   UNL     1       2.485   0.024  -0.109  0.00  0.00    +0.000 C 
ATOM      3  C   UNL     1       3.213  -1.111  -0.070  0.00  0.00    +0.000 C 
ATOM      4  C   UNL     1       4.727  -1.063  -0.080  0.00  0.00    +0.000 C 
ATOM      5  C   UNL     1       5.189   0.409  -0.109  0.00  0.00    +0.000 C 
ATOM      6  C   UNL     1       4.410   1.246   0.961  0.00  0.00    +0.000 C 
ATOM      7  C   UNL     1       3.278   1.309  -0.128  0.00  0.00    +0.000 C 
ATOM      8  C   UNL     1       4.469   1.324  -1.193  0.00  0.00    +0.000 C 
ATOM      9  C   UNL     1       4.208   0.712  -2.576  0.00  0.00    +0.000 C 
ATOM     10  C   UNL     1       5.139   2.695  -1.418  0.00  0.00    +0.000 C 
ENDROOT
TORSDOF 0
