REMARK  Name = 
REMARK  27 active torsions:
REMARK  status: ('A' for Active; 'I' for Inactive)
REMARK    1  A    between atoms: C_1  and  C_2
REMARK    2  A    between atoms: C_4  and  O_5
REMARK    3  A    between atoms: O_5  and  C_6
REMARK    4  A    between atoms: C_7  and  O_8
REMARK    5  A    between atoms: C_9  and  O_10
REMARK    6  A    between atoms: O_10  and  C_11
REMARK    7  A    between atoms: C_11  and  C_12
REMARK    8  A    between atoms: C_12  and  C_13
REMARK    9  A    between atoms: C_15  and  O_16
REMARK   10  A    between atoms: C_17  and  O_18
REMARK   11  A    between atoms: C_22  and  C_23
REMARK   12  A    between atoms: C_23  and  O_24
REMARK   13  A    between atoms: O_24  and  C_25
REMARK   14  A    between atoms: C_27  and  C_28
REMARK   15  A    between atoms: C_28  and  O_29
REMARK   16  A    between atoms: C_30  and  O_31
REMARK   17  A    between atoms: C_32  and  O_33
REMARK   18  A    between atoms: C_34  and  O_35
REMARK   19  A    between atoms: C_36  and  O_37
REMARK   20  A    between atoms: O_37  and  C_38
REMARK   21  A    between atoms: C_38  and  C_40
REMARK   22  A    between atoms: C_41  and  C_42
REMARK   23  A    between atoms: C_44  and  O_45
REMARK   24  A    between atoms: C_46  and  O_47
REMARK   25  A    between atoms: C_50  and  O_51
REMARK   26  A    between atoms: C_52  and  O_53
REMARK   27  A    between atoms: C_54  and  O_55
REMARK                            x       y       z     vdW  Elec       q    Type
REMARK                         _______ _______ _______ _____ _____    ______ ____
ROOT
ATOM      1  C   UNL     1      -0.190  -4.812 -11.443  0.00  0.00    +0.000 C 
ATOM      2  C   UNL     1      -1.305  -4.211 -12.342  0.00  0.00    +0.000 C 
ATOM      3  C   UNL     1      -2.080  -3.025 -11.711  0.00  0.00    +0.000 C 
ATOM      4  O   UNL     1      -1.155  -2.118 -11.149  0.00  0.00    +0.000 OA
ATOM      5  C   UNL     1      -0.442  -2.696 -10.055  0.00  0.00    +0.000 C 
ATOM      6  C   UNL     1       0.537  -3.754 -10.589  0.00  0.00    +0.000 C 
ENDROOT
BRANCH   2   7
ATOM      7  O   UNL     1      -2.226  -5.253 -12.722  0.00  0.00    +0.000 OA
ATOM      8  H   UNL     1      -2.832  -5.418 -11.980  0.00  0.00    +0.000 HD
ENDBRANCH   2   7
BRANCH   6   9
ATOM      9  O   UNL     1       1.362  -4.362  -9.555  0.00  0.00    +0.000 OA
BRANCH   9  10
ATOM     10  C   UNL     1       0.758  -5.080  -8.576  0.00  0.00    +0.000 C 
ATOM     11  O   UNL     1      -0.447  -5.217  -8.435  0.00  0.00    +0.000 OA
BRANCH  10  12
ATOM     12  C   UNL     1       1.733  -5.728  -7.674  0.00  0.00    +0.000 C 
ATOM     13  C   UNL     1       3.056  -5.511  -7.709  0.00  0.00    +0.000 C 
BRANCH  13  14
ATOM     14  C   UNL     1       3.973  -6.238  -6.825  0.00  0.00    +0.000 A 
ATOM     15  C   UNL     1       4.317  -5.724  -5.567  0.00  0.00    +0.000 A 
ATOM     16  C   UNL     1       5.201  -6.434  -4.761  0.00  0.00    +0.000 A 
ATOM     17  C   UNL     1       5.742  -7.641  -5.196  0.00  0.00    +0.000 A 
ATOM     18  C   UNL     1       5.409  -8.159  -6.435  0.00  0.00    +0.000 A 
ATOM     19  C   UNL     1       4.523  -7.453  -7.255  0.00  0.00    +0.000 A 
BRANCH  17  20
ATOM     20  O   UNL     1       6.614  -8.328  -4.398  0.00  0.00    +0.000 OA
ATOM     21  H   UNL     1       6.700  -7.773  -3.598  0.00  0.00    +0.000 HD
ENDBRANCH  17  20
BRANCH  16  22
ATOM     22  O   UNL     1       5.571  -5.987  -3.522  0.00  0.00    +0.000 OA
ATOM     23  H   UNL     1       5.121  -5.140  -3.356  0.00  0.00    +0.000 HD
ENDBRANCH  16  22
ENDBRANCH  13  14
ENDBRANCH  10  12
ENDBRANCH   9  10
ENDBRANCH   6   9
BRANCH   1  24
ATOM     24  O   UNL     1       0.748  -5.724 -12.088  0.00  0.00    +0.000 OA
BRANCH  24  28
ATOM     25  C   UNL     1      -0.930  -5.357 -15.813  0.00  0.00    +0.000 C 
ATOM     26  C   UNL     1       0.037  -5.943 -14.796  0.00  0.00    +0.000 C 
ATOM     27  O   UNL     1       0.855  -4.864 -14.306  0.00  0.00    +0.000 OA
ATOM     28  C   UNL     1       1.588  -5.244 -13.140  0.00  0.00    +0.000 C 
ATOM     29  C   UNL     1       2.613  -6.322 -13.596  0.00  0.00    +0.000 C 
ATOM     30  C   UNL     1       1.885  -7.522 -14.221  0.00  0.00    +0.000 C 
ATOM     31  C   UNL     1       0.906  -7.084 -15.326  0.00  0.00    +0.000 C 
BRANCH  31  32
ATOM     32  O   UNL     1       0.106  -8.204 -15.714  0.00  0.00    +0.000 OA
ATOM     33  H   UNL     1       0.699  -8.980 -15.686  0.00  0.00    +0.000 HD
ENDBRANCH  31  32
BRANCH  30  34
ATOM     34  O   UNL     1       2.821  -8.452 -14.796  0.00  0.00    +0.000 OA
ATOM     35  H   UNL     1       3.512  -7.908 -15.226  0.00  0.00    +0.000 HD
ENDBRANCH  30  34
BRANCH  29  36
ATOM     36  O   UNL     1       3.516  -5.787 -14.592  0.00  0.00    +0.000 OA
ATOM     37  H   UNL     1       2.993  -5.180 -15.155  0.00  0.00    +0.000 HD
ENDBRANCH  29  36
ENDBRANCH  24  28
ENDBRANCH   1  24
BRANCH   5  38
ATOM     38  C   UNL     1       0.307  -1.565  -9.362  0.00  0.00    +0.000 C 
BRANCH  38  39
ATOM     39  O   UNL     1      -0.644  -0.656  -8.792  0.00  0.00    +0.000 OA
BRANCH  39  40
ATOM     40  C   UNL     1       0.012   0.337  -8.012  0.00  0.00    +0.000 C 
ATOM     41  O   UNL     1       0.655  -0.338  -6.939  0.00  0.00    +0.000 OA
ATOM     42  C   UNL     1       1.383   0.512  -6.057  0.00  0.00    +0.000 C 
ATOM     43  C   UNL     1       0.457   1.549  -5.418  0.00  0.00    +0.000 C 
ATOM     44  C   UNL     1      -0.313   2.319  -6.509  0.00  0.00    +0.000 C 
ATOM     45  C   UNL     1      -1.021   1.354  -7.479  0.00  0.00    +0.000 C 
BRANCH  44  46
ATOM     46  O   UNL     1      -1.241   3.227  -5.906  0.00  0.00    +0.000 OA
ATOM     47  H   UNL     1      -1.895   2.711  -5.401  0.00  0.00    +0.000 HD
ENDBRANCH  44  46
BRANCH  43  48
ATOM     48  O   UNL     1       1.215   2.429  -4.588  0.00  0.00    +0.000 OA
ATOM     49  H   UNL     1       1.566   3.156  -5.133  0.00  0.00    +0.000 HD
ENDBRANCH  43  48
BRANCH  45  50
ATOM     50  O   UNL     1      -1.658   2.088  -8.538  0.00  0.00    +0.000 OA
ATOM     51  H   UNL     1      -0.977   2.552  -9.053  0.00  0.00    +0.000 HD
ENDBRANCH  45  50
BRANCH  42  52
ATOM     52  C   UNL     1       1.999  -0.427  -5.014  0.00  0.00    +0.000 C 
BRANCH  52  53
ATOM     53  O   UNL     1       2.886  -1.342  -5.671  0.00  0.00    +0.000 OA
ATOM     54  H   UNL     1       2.381  -1.690  -6.430  0.00  0.00    +0.000 HD
ENDBRANCH  52  53
ENDBRANCH  42  52
ENDBRANCH  39  40
ENDBRANCH  38  39
ENDBRANCH   5  38
BRANCH   3  55
ATOM     55  O   UNL     1      -2.804  -2.404 -12.777  0.00  0.00    +0.000 OA
BRANCH  55  56
ATOM     56  C   UNL     1      -3.704  -1.354 -12.434  0.00  0.00    +0.000 C 
BRANCH  56  57
ATOM     57  C   UNL     1      -3.089  -0.039 -11.920  0.00  0.00    +0.000 C 
BRANCH  57  58
ATOM     58  C   UNL     1      -2.106   0.697 -12.812  0.00  0.00    +0.000 A 
ATOM     59  C   UNL     1      -1.983   2.095 -12.685  0.00  0.00    +0.000 A 
ATOM     60  C   UNL     1      -1.020   2.783 -13.427  0.00  0.00    +0.000 A 
ATOM     61  C   UNL     1      -0.168   2.094 -14.282  0.00  0.00    +0.000 A 
ATOM     62  C   UNL     1      -0.269   0.723 -14.424  0.00  0.00    +0.000 A 
ATOM     63  C   UNL     1      -1.236   0.031 -13.691  0.00  0.00    +0.000 A 
BRANCH  60  64
ATOM     64  O   UNL     1      -0.872   4.138 -13.334  0.00  0.00    +0.000 OA
ATOM     65  H   UNL     1      -1.611   4.484 -12.804  0.00  0.00    +0.000 HD
ENDBRANCH  60  64
BRANCH  61  66
ATOM     66  O   UNL     1       0.785   2.764 -14.991  0.00  0.00    +0.000 OA
ATOM     67  H   UNL     1       0.658   3.701 -14.744  0.00  0.00    +0.000 HD
ENDBRANCH  61  66
ENDBRANCH  57  58
ENDBRANCH  56  57
ENDBRANCH  55  56
ENDBRANCH   3  55
TORSDOF 26
