MODEL 1
REMARK VINA RESULT:      -7.5      0.000      0.000
REMARK  Name = 
REMARK  4 active torsions:
REMARK  status: ('A' for Active; 'I' for Inactive)
REMARK    1  A    between atoms: C_4  and  C_7
REMARK    2  A    between atoms: C_15  and  O_20
REMARK    3  A    between atoms: C_16  and  O_19
REMARK    4  A    between atoms: C_17  and  O_18
REMARK                            x       y       z     vdW  Elec       q    Type
REMARK                         _______ _______ _______ _____ _____    ______ ____
ROOT
ATOM      1  C   UNL     1       9.003  -2.270  23.364  0.00  0.00    +0.000 A 
ATOM      2  C   UNL     1       8.060  -2.663  22.496  0.00  0.00    +0.000 A 
ATOM      3  C   UNL     1       7.543  -4.008  22.660  0.00  0.00    +0.000 A 
ATOM      4  O   UNL     1       7.252  -4.724  21.723  0.00  0.00    +0.000 OA
ATOM      5  C   UNL     1       7.518  -4.425  24.056  0.00  0.00    +0.000 A 
ATOM      6  C   UNL     1       8.632  -4.100  24.830  0.00  0.00    +0.000 A 
ATOM      7  O   UNL     1       9.489  -3.087  24.414  0.00  0.00    +0.000 OA
ATOM      8  C   UNL     1       8.772  -4.691  26.090  0.00  0.00    +0.000 A 
ATOM      9  C   UNL     1       7.692  -5.411  26.601  0.00  0.00    +0.000 A 
ATOM     10  C   UNL     1       6.474  -5.451  25.920  0.00  0.00    +0.000 A 
ATOM     11  C   UNL     1       6.391  -4.963  24.626  0.00  0.00    +0.000 A 
ENDROOT
BRANCH   1  15
ATOM     12  C   UNL     1      10.370   1.766  22.868  0.00  0.00    +0.000 A 
ATOM     13  C   UNL     1      10.561   1.120  24.092  0.00  0.00    +0.000 A 
ATOM     14  C   UNL     1      10.152  -0.213  24.266  0.00  0.00    +0.000 A 
ATOM     15  C   UNL     1       9.551  -0.909  23.212  0.00  0.00    +0.000 A 
ATOM     16  C   UNL     1       9.382  -0.236  21.984  0.00  0.00    +0.000 A 
ATOM     17  C   UNL     1       9.776   1.088  21.813  0.00  0.00    +0.000 A 
ENDBRANCH   1  15
BRANCH  11  18
ATOM     18  O   UNL     1       5.178  -4.874  24.008  0.00  0.00    +0.000 OA
ATOM     19  H   UNL     1       4.694  -4.168  24.471  0.00  0.00    +0.000 HD
ENDBRANCH  11  18
BRANCH  10  20
ATOM     20  O   UNL     1       5.340  -5.935  26.508  0.00  0.00    +0.000 OA
ATOM     21  H   UNL     1       5.190  -5.347  27.285  0.00  0.00    +0.000 HD
ENDBRANCH  10  20
BRANCH   9  22
ATOM     22  O   UNL     1       7.748  -6.051  27.809  0.00  0.00    +0.000 OA
ATOM     23  H   UNL     1       7.041  -5.679  28.364  0.00  0.00    +0.000 HD
ENDBRANCH   9  22
TORSDOF 4
ENDMDL
MODEL 2
REMARK VINA RESULT:      -7.2      1.913      2.898
REMARK  Name = 
REMARK  4 active torsions:
REMARK  status: ('A' for Active; 'I' for Inactive)
REMARK    1  A    between atoms: C_4  and  C_7
REMARK    2  A    between atoms: C_15  and  O_20
REMARK    3  A    between atoms: C_16  and  O_19
REMARK    4  A    between atoms: C_17  and  O_18
REMARK                            x       y       z     vdW  Elec       q    Type
REMARK                         _______ _______ _______ _____ _____    ______ ____
ROOT
ATOM      1  C   UNL     1       8.885  -1.649  23.859  0.00  0.00    +0.000 A 
ATOM      2  C   UNL     1       9.708  -2.705  23.929  0.00  0.00    +0.000 A 
ATOM      3  C   UNL     1       9.107  -3.978  24.280  0.00  0.00    +0.000 A 
ATOM      4  O   UNL     1       9.659  -4.797  24.987  0.00  0.00    +0.000 OA
ATOM      5  C   UNL     1       7.745  -4.103  23.781  0.00  0.00    +0.000 A 
ATOM      6  C   UNL     1       6.922  -2.983  23.908  0.00  0.00    +0.000 A 
ATOM      7  O   UNL     1       7.491  -1.728  24.093  0.00  0.00    +0.000 OA
ATOM      8  C   UNL     1       5.549  -3.127  23.683  0.00  0.00    +0.000 A 
ATOM      9  C   UNL     1       5.095  -4.329  23.139  0.00  0.00    +0.000 A 
ATOM     10  C   UNL     1       5.997  -5.316  22.735  0.00  0.00    +0.000 A 
ATOM     11  C   UNL     1       7.336  -5.206  23.073  0.00  0.00    +0.000 A 
ENDROOT
BRANCH   1  15
ATOM     12  C   UNL     1      10.376   2.226  22.783  0.00  0.00    +0.000 A 
ATOM     13  C   UNL     1      10.538   1.765  24.092  0.00  0.00    +0.000 A 
ATOM     14  C   UNL     1      10.087   0.485  24.458  0.00  0.00    +0.000 A 
ATOM     15  C   UNL     1       9.475  -0.342  23.512  0.00  0.00    +0.000 A 
ATOM     16  C   UNL     1       9.336   0.144  22.195  0.00  0.00    +0.000 A 
ATOM     17  C   UNL     1       9.771   1.416  21.834  0.00  0.00    +0.000 A 
ENDBRANCH   1  15
BRANCH  11  18
ATOM     18  O   UNL     1       8.241  -6.093  22.566  0.00  0.00    +0.000 OA
ATOM     19  H   UNL     1       9.080  -5.605  22.495  0.00  0.00    +0.000 HD
ENDBRANCH  11  18
BRANCH  10  20
ATOM     20  O   UNL     1       5.600  -6.384  21.982  0.00  0.00    +0.000 OA
ATOM     21  H   UNL     1       4.992  -6.004  21.307  0.00  0.00    +0.000 HD
ENDBRANCH  10  20
BRANCH   9  22
ATOM     22  O   UNL     1       3.768  -4.574  22.916  0.00  0.00    +0.000 OA
ATOM     23  H   UNL     1       3.499  -5.279  23.530  0.00  0.00    +0.000 HD
ENDBRANCH   9  22
TORSDOF 4
ENDMDL
MODEL 3
REMARK VINA RESULT:      -6.7      3.355      6.770
REMARK  Name = 
REMARK  4 active torsions:
REMARK  status: ('A' for Active; 'I' for Inactive)
REMARK    1  A    between atoms: C_4  and  C_7
REMARK    2  A    between atoms: C_15  and  O_20
REMARK    3  A    between atoms: C_16  and  O_19
REMARK    4  A    between atoms: C_17  and  O_18
REMARK                            x       y       z     vdW  Elec       q    Type
REMARK                         _______ _______ _______ _____ _____    ______ ____
ROOT
ATOM      1  C   UNL     1       7.259  -2.363  23.077  0.00  0.00    +0.000 A 
ATOM      2  C   UNL     1       6.176  -1.758  23.587  0.00  0.00    +0.000 A 
ATOM      3  C   UNL     1       6.357  -0.407  24.083  0.00  0.00    +0.000 A 
ATOM      4  O   UNL     1       5.795   0.014  25.074  0.00  0.00    +0.000 OA
ATOM      5  C   UNL     1       7.359   0.331  23.326  0.00  0.00    +0.000 A 
ATOM      6  C   UNL     1       8.524  -0.357  22.986  0.00  0.00    +0.000 A 
ATOM      7  O   UNL     1       8.531  -1.747  22.992  0.00  0.00    +0.000 OA
ATOM      8  C   UNL     1       9.613   0.367  22.489  0.00  0.00    +0.000 A 
ATOM      9  C   UNL     1       9.414   1.708  22.159  0.00  0.00    +0.000 A 
ATOM     10  C   UNL     1       8.141   2.278  22.224  0.00  0.00    +0.000 A 
ATOM     11  C   UNL     1       7.105   1.585  22.827  0.00  0.00    +0.000 A 
ENDROOT
BRANCH   1  15
ATOM     12  C   UNL     1       6.721  -6.434  21.837  0.00  0.00    +0.000 A 
ATOM     13  C   UNL     1       6.030  -5.416  21.175  0.00  0.00    +0.000 A 
ATOM     14  C   UNL     1       6.217  -4.072  21.543  0.00  0.00    +0.000 A 
ATOM     15  C   UNL     1       7.101  -3.741  22.574  0.00  0.00    +0.000 A 
ATOM     16  C   UNL     1       7.794  -4.788  23.217  0.00  0.00    +0.000 A 
ATOM     17  C   UNL     1       7.601  -6.120  22.862  0.00  0.00    +0.000 A 
ENDBRANCH   1  15
BRANCH  11  18
ATOM     18  O   UNL     1       5.833   2.076  22.772  0.00  0.00    +0.000 OA
ATOM     19  H   UNL     1       5.426   1.675  21.985  0.00  0.00    +0.000 HD
ENDBRANCH  11  18
BRANCH  10  20
ATOM     20  O   UNL     1       7.875   3.502  21.678  0.00  0.00    +0.000 OA
ATOM     21  H   UNL     1       8.260   3.461  20.771  0.00  0.00    +0.000 HD
ENDBRANCH  10  20
BRANCH   9  22
ATOM     22  O   UNL     1      10.427   2.504  21.698  0.00  0.00    +0.000 OA
ATOM     23  H   UNL     1      10.153   2.841  20.828  0.00  0.00    +0.000 HD
ENDBRANCH   9  22
TORSDOF 4
ENDMDL
MODEL 4
REMARK VINA RESULT:      -6.7      2.734      6.677
REMARK  Name = 
REMARK  4 active torsions:
REMARK  status: ('A' for Active; 'I' for Inactive)
REMARK    1  A    between atoms: C_4  and  C_7
REMARK    2  A    between atoms: C_15  and  O_20
REMARK    3  A    between atoms: C_16  and  O_19
REMARK    4  A    between atoms: C_17  and  O_18
REMARK                            x       y       z     vdW  Elec       q    Type
REMARK                         _______ _______ _______ _____ _____    ______ ____
ROOT
ATOM      1  C   UNL     1       8.218  -2.620  24.084  0.00  0.00    +0.000 A 
ATOM      2  C   UNL     1       8.009  -2.166  25.329  0.00  0.00    +0.000 A 
ATOM      3  C   UNL     1       8.788  -1.015  25.742  0.00  0.00    +0.000 A 
ATOM      4  O   UNL     1       9.225  -0.881  26.868  0.00  0.00    +0.000 OA
ATOM      5  C   UNL     1       9.068  -0.110  24.635  0.00  0.00    +0.000 A 
ATOM      6  C   UNL     1       9.436  -0.693  23.422  0.00  0.00    +0.000 A 
ATOM      7  O   UNL     1       9.132  -2.028  23.180  0.00  0.00    +0.000 OA
ATOM      8  C   UNL     1       9.957   0.123  22.413  0.00  0.00    +0.000 A 
ATOM      9  C   UNL     1       9.891   1.505  22.587  0.00  0.00    +0.000 A 
ATOM     10  C   UNL     1       9.229   2.056  23.686  0.00  0.00    +0.000 A 
ATOM     11  C   UNL     1       8.825   1.238  24.728  0.00  0.00    +0.000 A 
ENDROOT
BRANCH   1  15
ATOM     12  C   UNL     1       5.762  -5.925  22.883  0.00  0.00    +0.000 A 
ATOM     13  C   UNL     1       6.543  -5.267  21.931  0.00  0.00    +0.000 A 
ATOM     14  C   UNL     1       7.381  -4.203  22.308  0.00  0.00    +0.000 A 
ATOM     15  C   UNL     1       7.443  -3.796  23.644  0.00  0.00    +0.000 A 
ATOM     16  C   UNL     1       6.653  -4.487  24.587  0.00  0.00    +0.000 A 
ATOM     17  C   UNL     1       5.814  -5.533  24.213  0.00  0.00    +0.000 A 
ENDBRANCH   1  15
BRANCH  11  18
ATOM     18  O   UNL     1       8.059   1.747  25.736  0.00  0.00    +0.000 OA
ATOM     19  H   UNL     1       7.145   1.484  25.536  0.00  0.00    +0.000 HD
ENDBRANCH  11  18
BRANCH  10  20
ATOM     20  O   UNL     1       8.936   3.389  23.752  0.00  0.00    +0.000 OA
ATOM     21  H   UNL     1       8.349   3.478  24.540  0.00  0.00    +0.000 HD
ENDBRANCH  10  20
BRANCH   9  22
ATOM     22  O   UNL     1      10.405   2.381  21.670  0.00  0.00    +0.000 OA
ATOM     23  H   UNL     1      11.170   1.947  21.256  0.00  0.00    +0.000 HD
ENDBRANCH   9  22
TORSDOF 4
ENDMDL
MODEL 5
REMARK VINA RESULT:      -6.5      2.392      3.214
REMARK  Name = 
REMARK  4 active torsions:
REMARK  status: ('A' for Active; 'I' for Inactive)
REMARK    1  A    between atoms: C_4  and  C_7
REMARK    2  A    between atoms: C_15  and  O_20
REMARK    3  A    between atoms: C_16  and  O_19
REMARK    4  A    between atoms: C_17  and  O_18
REMARK                            x       y       z     vdW  Elec       q    Type
REMARK                         _______ _______ _______ _____ _____    ______ ____
ROOT
ATOM      1  C   UNL     1       7.337  -2.222  23.198  0.00  0.00    +0.000 A 
ATOM      2  C   UNL     1       8.032  -3.296  22.793  0.00  0.00    +0.000 A 
ATOM      3  C   UNL     1       7.571  -4.587  23.268  0.00  0.00    +0.000 A 
ATOM      4  O   UNL     1       8.327  -5.488  23.572  0.00  0.00    +0.000 OA
ATOM      5  C   UNL     1       6.125  -4.632  23.434  0.00  0.00    +0.000 A 
ATOM      6  C   UNL     1       5.523  -3.516  24.018  0.00  0.00    +0.000 A 
ATOM      7  O   UNL     1       6.195  -2.299  24.033  0.00  0.00    +0.000 OA
ATOM      8  C   UNL     1       4.190  -3.609  24.430  0.00  0.00    +0.000 A 
ATOM      9  C   UNL     1       3.462  -4.737  24.050  0.00  0.00    +0.000 A 
ATOM     10  C   UNL     1       4.018  -5.691  23.196  0.00  0.00    +0.000 A 
ATOM     11  C   UNL     1       5.369  -5.644  22.896  0.00  0.00    +0.000 A 
ENDROOT
BRANCH   1  15
ATOM     12  C   UNL     1       8.664   1.541  21.626  0.00  0.00    +0.000 A 
ATOM     13  C   UNL     1       7.453   1.474  22.319  0.00  0.00    +0.000 A 
ATOM     14  C   UNL     1       7.016   0.258  22.872  0.00  0.00    +0.000 A 
ATOM     15  C   UNL     1       7.791  -0.897  22.735  0.00  0.00    +0.000 A 
ATOM     16  C   UNL     1       9.015  -0.797  22.041  0.00  0.00    +0.000 A 
ATOM     17  C   UNL     1       9.445   0.404  21.483  0.00  0.00    +0.000 A 
ENDBRANCH   1  15
BRANCH  11  18
ATOM     18  O   UNL     1       5.888  -6.488  21.958  0.00  0.00    +0.000 OA
ATOM     19  H   UNL     1       6.146  -7.294  22.439  0.00  0.00    +0.000 HD
ENDBRANCH  11  18
BRANCH  10  20
ATOM     20  O   UNL     1       3.255  -6.665  22.617  0.00  0.00    +0.000 OA
ATOM     21  H   UNL     1       3.669  -6.817  21.735  0.00  0.00    +0.000 HD
ENDBRANCH  10  20
BRANCH   9  22
ATOM     22  O   UNL     1       2.163  -4.930  24.435  0.00  0.00    +0.000 OA
ATOM     23  H   UNL     1       2.079  -4.589  25.342  0.00  0.00    +0.000 HD
ENDBRANCH   9  22
TORSDOF 4
ENDMDL
MODEL 6
REMARK VINA RESULT:      -6.5      1.955      2.300
REMARK  Name = 
REMARK  4 active torsions:
REMARK  status: ('A' for Active; 'I' for Inactive)
REMARK    1  A    between atoms: C_4  and  C_7
REMARK    2  A    between atoms: C_15  and  O_20
REMARK    3  A    between atoms: C_16  and  O_19
REMARK    4  A    between atoms: C_17  and  O_18
REMARK                            x       y       z     vdW  Elec       q    Type
REMARK                         _______ _______ _______ _____ _____    ______ ____
ROOT
ATOM      1  C   UNL     1       7.729  -0.798  23.553  0.00  0.00    +0.000 A 
ATOM      2  C   UNL     1       6.452  -1.167  23.731  0.00  0.00    +0.000 A 
ATOM      3  C   UNL     1       6.195  -2.590  23.842  0.00  0.00    +0.000 A 
ATOM      4  O   UNL     1       5.211  -3.124  23.370  0.00  0.00    +0.000 OA
ATOM      5  C   UNL     1       7.293  -3.303  24.482  0.00  0.00    +0.000 A 
ATOM      6  C   UNL     1       8.585  -2.944  24.098  0.00  0.00    +0.000 A 
ATOM      7  O   UNL     1       8.806  -1.714  23.486  0.00  0.00    +0.000 OA
ATOM      8  C   UNL     1       9.654  -3.759  24.484  0.00  0.00    +0.000 A 
ATOM      9  C   UNL     1       9.405  -4.774  25.408  0.00  0.00    +0.000 A 
ATOM     10  C   UNL     1       8.150  -4.903  26.007  0.00  0.00    +0.000 A 
ATOM     11  C   UNL     1       7.079  -4.166  25.528  0.00  0.00    +0.000 A 
ENDROOT
BRANCH   1  15
ATOM     12  C   UNL     1       8.319   3.438  23.224  0.00  0.00    +0.000 A 
ATOM     13  C   UNL     1       8.994   2.724  24.217  0.00  0.00    +0.000 A 
ATOM     14  C   UNL     1       8.842   1.331  24.322  0.00  0.00    +0.000 A 
ATOM     15  C   UNL     1       8.014   0.644  23.428  0.00  0.00    +0.000 A 
ATOM     16  C   UNL     1       7.354   1.389  22.428  0.00  0.00    +0.000 A 
ATOM     17  C   UNL     1       7.495   2.770  22.331  0.00  0.00    +0.000 A 
ENDBRANCH   1  15
BRANCH  11  18
ATOM     18  O   UNL     1       5.888  -4.185  26.193  0.00  0.00    +0.000 OA
ATOM     19  H   UNL     1       5.875  -3.379  26.738  0.00  0.00    +0.000 HD
ENDBRANCH  11  18
BRANCH  10  20
ATOM     20  O   UNL     1       7.949  -5.719  27.083  0.00  0.00    +0.000 OA
ATOM     21  H   UNL     1       7.087  -6.162  26.906  0.00  0.00    +0.000 HD
ENDBRANCH  10  20
BRANCH   9  22
ATOM     22  O   UNL     1      10.379  -5.642  25.819  0.00  0.00    +0.000 OA
ATOM     23  H   UNL     1      11.231  -5.181  25.728  0.00  0.00    +0.000 HD
ENDBRANCH   9  22
TORSDOF 4
ENDMDL
MODEL 7
REMARK VINA RESULT:      -6.5      1.705      2.302
REMARK  Name = 
REMARK  4 active torsions:
REMARK  status: ('A' for Active; 'I' for Inactive)
REMARK    1  A    between atoms: C_4  and  C_7
REMARK    2  A    between atoms: C_15  and  O_20
REMARK    3  A    between atoms: C_16  and  O_19
REMARK    4  A    between atoms: C_17  and  O_18
REMARK                            x       y       z     vdW  Elec       q    Type
REMARK                         _______ _______ _______ _____ _____    ______ ____
ROOT
ATOM      1  C   UNL     1       7.337  -3.362  22.800  0.00  0.00    +0.000 A 
ATOM      2  C   UNL     1       6.671  -3.993  21.822  0.00  0.00    +0.000 A 
ATOM      3  C   UNL     1       6.292  -5.370  22.076  0.00  0.00    +0.000 A 
ATOM      4  O   UNL     1       6.310  -6.230  21.217  0.00  0.00    +0.000 OA
ATOM      5  C   UNL     1       5.997  -5.614  23.481  0.00  0.00    +0.000 A 
ATOM      6  C   UNL     1       6.858  -5.036  24.414  0.00  0.00    +0.000 A 
ATOM      7  O   UNL     1       7.662  -3.965  24.039  0.00  0.00    +0.000 OA
ATOM      8  C   UNL     1       6.774  -5.442  25.750  0.00  0.00    +0.000 A 
ATOM      9  C   UNL     1       5.699  -6.247  26.125  0.00  0.00    +0.000 A 
ATOM     10  C   UNL     1       4.682  -6.550  25.217  0.00  0.00    +0.000 A 
ATOM     11  C   UNL     1       4.841  -6.240  23.876  0.00  0.00    +0.000 A 
ENDROOT
BRANCH   1  15
ATOM     12  C   UNL     1       8.513   0.738  22.351  0.00  0.00    +0.000 A 
ATOM     13  C   UNL     1       9.323  -0.271  21.826  0.00  0.00    +0.000 A 
ATOM     14  C   UNL     1       8.940  -1.620  21.931  0.00  0.00    +0.000 A 
ATOM     15  C   UNL     1       7.740  -1.963  22.562  0.00  0.00    +0.000 A 
ATOM     16  C   UNL     1       6.937  -0.922  23.073  0.00  0.00    +0.000 A 
ATOM     17  C   UNL     1       7.320   0.413  22.979  0.00  0.00    +0.000 A 
ENDBRANCH   1  15
BRANCH  11  18
ATOM     18  O   UNL     1       3.800  -6.408  23.010  0.00  0.00    +0.000 OA
ATOM     19  H   UNL     1       4.146  -6.949  22.280  0.00  0.00    +0.000 HD
ENDBRANCH  11  18
BRANCH  10  20
ATOM     20  O   UNL     1       3.509  -7.122  25.619  0.00  0.00    +0.000 OA
ATOM     21  H   UNL     1       2.811  -6.481  25.347  0.00  0.00    +0.000 HD
ENDBRANCH  10  20
BRANCH   9  22
ATOM     22  O   UNL     1       5.552  -6.721  27.400  0.00  0.00    +0.000 OA
ATOM     23  H   UNL     1       5.843  -6.015  28.004  0.00  0.00    +0.000 HD
ENDBRANCH   9  22
TORSDOF 4
ENDMDL
MODEL 8
REMARK VINA RESULT:      -6.4      2.081      3.613
REMARK  Name = 
REMARK  4 active torsions:
REMARK  status: ('A' for Active; 'I' for Inactive)
REMARK    1  A    between atoms: C_4  and  C_7
REMARK    2  A    between atoms: C_15  and  O_20
REMARK    3  A    between atoms: C_16  and  O_19
REMARK    4  A    between atoms: C_17  and  O_18
REMARK                            x       y       z     vdW  Elec       q    Type
REMARK                         _______ _______ _______ _____ _____    ______ ____
ROOT
ATOM      1  C   UNL     1       8.236  -0.592  24.551  0.00  0.00    +0.000 A 
ATOM      2  C   UNL     1       8.813  -1.430  25.424  0.00  0.00    +0.000 A 
ATOM      3  C   UNL     1       8.223  -2.750  25.546  0.00  0.00    +0.000 A 
ATOM      4  O   UNL     1       8.137  -3.341  26.605  0.00  0.00    +0.000 OA
ATOM      5  C   UNL     1       7.661  -3.224  24.289  0.00  0.00    +0.000 A 
ATOM      6  C   UNL     1       6.938  -2.299  23.534  0.00  0.00    +0.000 A 
ATOM      7  O   UNL     1       7.116  -0.938  23.757  0.00  0.00    +0.000 OA
ATOM      8  C   UNL     1       6.170  -2.760  22.459  0.00  0.00    +0.000 A 
ATOM      9  C   UNL     1       6.327  -4.088  22.062  0.00  0.00    +0.000 A 
ATOM     10  C   UNL     1       7.298  -4.900  22.653  0.00  0.00    +0.000 A 
ATOM     11  C   UNL     1       7.963  -4.466  23.788  0.00  0.00    +0.000 A 
ENDROOT
BRANCH   1  15
ATOM     12  C   UNL     1       9.892   3.314  23.914  0.00  0.00    +0.000 A 
ATOM     13  C   UNL     1       8.731   3.175  24.679  0.00  0.00    +0.000 A 
ATOM     14  C   UNL     1       8.190   1.902  24.929  0.00  0.00    +0.000 A 
ATOM     15  C   UNL     1       8.813   0.760  24.415  0.00  0.00    +0.000 A 
ATOM     16  C   UNL     1       9.990   0.929  23.657  0.00  0.00    +0.000 A 
ATOM     17  C   UNL     1      10.521   2.190  23.399  0.00  0.00    +0.000 A 
ENDBRANCH   1  15
BRANCH  11  18
ATOM     18  O   UNL     1       9.004  -5.193  24.287  0.00  0.00    +0.000 OA
ATOM     19  H   UNL     1       8.799  -5.340  25.227  0.00  0.00    +0.000 HD
ENDBRANCH  11  18
BRANCH  10  20
ATOM     20  O   UNL     1       7.638  -6.112  22.122  0.00  0.00    +0.000 OA
ATOM     21  H   UNL     1       8.602  -6.040  21.929  0.00  0.00    +0.000 HD
ENDBRANCH  10  20
BRANCH   9  22
ATOM     22  O   UNL     1       5.596  -4.636  21.045  0.00  0.00    +0.000 OA
ATOM     23  H   UNL     1       5.496  -3.951  20.362  0.00  0.00    +0.000 HD
ENDBRANCH   9  22
TORSDOF 4
ENDMDL
MODEL 9
REMARK VINA RESULT:      -6.4      2.161      3.173
REMARK  Name = 
REMARK  4 active torsions:
REMARK  status: ('A' for Active; 'I' for Inactive)
REMARK    1  A    between atoms: C_4  and  C_7
REMARK    2  A    between atoms: C_15  and  O_20
REMARK    3  A    between atoms: C_16  and  O_19
REMARK    4  A    between atoms: C_17  and  O_18
REMARK                            x       y       z     vdW  Elec       q    Type
REMARK                         _______ _______ _______ _____ _____    ______ ____
ROOT
ATOM      1  C   UNL     1       9.497   0.581  24.386  0.00  0.00    +0.000 A 
ATOM      2  C   UNL     1       9.695   0.045  23.173  0.00  0.00    +0.000 A 
ATOM      3  C   UNL     1       9.860  -1.395  23.117  0.00  0.00    +0.000 A 
ATOM      4  O   UNL     1      10.633  -1.943  22.356  0.00  0.00    +0.000 OA
ATOM      5  C   UNL     1       9.082  -2.082  24.138  0.00  0.00    +0.000 A 
ATOM      6  C   UNL     1       9.079  -1.517  25.414  0.00  0.00    +0.000 A 
ATOM      7  O   UNL     1       9.431  -0.182  25.577  0.00  0.00    +0.000 OA
ATOM      8  C   UNL     1       8.565  -2.263  26.480  0.00  0.00    +0.000 A 
ATOM      9  C   UNL     1       7.891  -3.448  26.187  0.00  0.00    +0.000 A 
ATOM     10  C   UNL     1       7.645  -3.822  24.864  0.00  0.00    +0.000 A 
ATOM     11  C   UNL     1       8.259  -3.137  23.829  0.00  0.00    +0.000 A 
ENDROOT
BRANCH   1  15
ATOM     12  C   UNL     1       8.998   4.842  24.386  0.00  0.00    +0.000 A 
ATOM     13  C   UNL     1       8.121   4.046  25.127  0.00  0.00    +0.000 A 
ATOM     14  C   UNL     1       8.287   2.651  25.169  0.00  0.00    +0.000 A 
ATOM     15  C   UNL     1       9.335   2.045  24.470  0.00  0.00    +0.000 A 
ATOM     16  C   UNL     1      10.213   2.874  23.740  0.00  0.00    +0.000 A 
ATOM     17  C   UNL     1      10.043   4.255  23.688  0.00  0.00    +0.000 A 
ENDBRANCH   1  15
BRANCH  11  18
ATOM     18  O   UNL     1       7.918  -3.408  22.536  0.00  0.00    +0.000 OA
ATOM     19  H   UNL     1       7.464  -4.268  22.555  0.00  0.00    +0.000 HD
ENDBRANCH  11  18
BRANCH  10  20
ATOM     20  O   UNL     1       6.782  -4.835  24.554  0.00  0.00    +0.000 OA
ATOM     21  H   UNL     1       6.529  -4.671  23.615  0.00  0.00    +0.000 HD
ENDBRANCH  10  20
BRANCH   9  22
ATOM     22  O   UNL     1       7.384  -4.260  27.164  0.00  0.00    +0.000 OA
ATOM     23  H   UNL     1       7.448  -5.175  26.840  0.00  0.00    +0.000 HD
ENDBRANCH   9  22
TORSDOF 4
ENDMDL
