MODEL 1
REMARK VINA RESULT:      -4.7      0.000      0.000
REMARK  Name = 
REMARK  4 active torsions:
REMARK  status: ('A' for Active; 'I' for Inactive)
REMARK    1  A    between atoms: C_1  and  C_2
REMARK    2  A    between atoms: C_5  and  C_8
REMARK    3  A    between atoms: C_8  and  C_9
REMARK    4  A    between atoms: C_8  and  C_10
REMARK                            x       y       z     vdW  Elec       q    Type
REMARK                         _______ _______ _______ _____ _____    ______ ____
ROOT
ATOM      1  C   UNL     1      10.861   3.551  23.470  0.00  0.00    +0.000 C 
ATOM      2  C   UNL     1      10.527   2.098  23.296  0.00  0.00    +0.000 C 
ATOM      3  C   UNL     1      10.663   1.204  24.284  0.00  0.00    +0.000 C 
ATOM      4  C   UNL     1      10.313  -0.185  24.119  0.00  0.00    +0.000 C 
ATOM      5  C   UNL     1       9.836  -0.684  22.964  0.00  0.00    +0.000 C 
ATOM      6  C   UNL     1       9.660   0.210  21.753  0.00  0.00    +0.000 C 
ATOM      7  C   UNL     1      10.018   1.698  21.936  0.00  0.00    +0.000 C 
ENDROOT
BRANCH   5   8
ATOM      8  C   UNL     1       9.450  -2.152  22.839  0.00  0.00    +0.000 C 
ATOM      9  C   UNL     1       9.600  -2.898  24.168  0.00  0.00    +0.000 C 
ATOM     10  C   UNL     1       8.038  -2.337  22.280  0.00  0.00    +0.000 C 
ENDBRANCH   5   8
TORSDOF 1
ENDMDL
MODEL 2
REMARK VINA RESULT:      -4.6      0.167      1.579
REMARK  Name = 
REMARK  4 active torsions:
REMARK  status: ('A' for Active; 'I' for Inactive)
REMARK    1  A    between atoms: C_1  and  C_2
REMARK    2  A    between atoms: C_5  and  C_8
REMARK    3  A    between atoms: C_8  and  C_9
REMARK    4  A    between atoms: C_8  and  C_10
REMARK                            x       y       z     vdW  Elec       q    Type
REMARK                         _______ _______ _______ _____ _____    ______ ____
ROOT
ATOM      1  C   UNL     1      10.884   3.506  23.332  0.00  0.00    +0.000 C 
ATOM      2  C   UNL     1      10.474   2.067  23.214  0.00  0.00    +0.000 C 
ATOM      3  C   UNL     1      10.034   1.535  22.065  0.00  0.00    +0.000 C 
ATOM      4  C   UNL     1       9.669   0.144  21.951  0.00  0.00    +0.000 C 
ATOM      5  C   UNL     1       9.734  -0.713  22.986  0.00  0.00    +0.000 C 
ATOM      6  C   UNL     1      10.186  -0.239  24.352  0.00  0.00    +0.000 C 
ATOM      7  C   UNL     1      10.593   1.243  24.469  0.00  0.00    +0.000 C 
ENDROOT
BRANCH   5   8
ATOM      8  C   UNL     1       9.367  -2.182  22.817  0.00  0.00    +0.000 C 
ATOM      9  C   UNL     1       9.589  -2.979  24.105  0.00  0.00    +0.000 C 
ATOM     10  C   UNL     1       7.933  -2.369  22.314  0.00  0.00    +0.000 C 
ENDBRANCH   5   8
TORSDOF 1
ENDMDL
MODEL 3
REMARK VINA RESULT:      -4.5      0.936      4.508
REMARK  Name = 
REMARK  4 active torsions:
REMARK  status: ('A' for Active; 'I' for Inactive)
REMARK    1  A    between atoms: C_1  and  C_2
REMARK    2  A    between atoms: C_5  and  C_8
REMARK    3  A    between atoms: C_8  and  C_9
REMARK    4  A    between atoms: C_8  and  C_10
REMARK                            x       y       z     vdW  Elec       q    Type
REMARK                         _______ _______ _______ _____ _____    ______ ____
ROOT
ATOM      1  C   UNL     1      10.069  -2.256  23.430  0.00  0.00    +0.000 C 
ATOM      2  C   UNL     1      10.098  -0.756  23.381  0.00  0.00    +0.000 C 
ATOM      3  C   UNL     1      10.320  -0.004  24.467  0.00  0.00    +0.000 C 
ATOM      4  C   UNL     1      10.375   1.436  24.408  0.00  0.00    +0.000 C 
ATOM      5  C   UNL     1      10.200   2.125  23.265  0.00  0.00    +0.000 C 
ATOM      6  C   UNL     1       9.912   1.403  21.966  0.00  0.00    +0.000 C 
ATOM      7  C   UNL     1       9.870  -0.137  22.026  0.00  0.00    +0.000 C 
ENDROOT
BRANCH   5   8
ATOM      8  C   UNL     1      10.295   3.646  23.240  0.00  0.00    +0.000 C 
ATOM      9  C   UNL     1       9.389   4.293  24.291  0.00  0.00    +0.000 C 
ATOM     10  C   UNL     1      11.734   4.141  23.399  0.00  0.00    +0.000 C 
ENDBRANCH   5   8
TORSDOF 1
ENDMDL
MODEL 4
REMARK VINA RESULT:      -4.3      1.346      4.851
REMARK  Name = 
REMARK  4 active torsions:
REMARK  status: ('A' for Active; 'I' for Inactive)
REMARK    1  A    between atoms: C_1  and  C_2
REMARK    2  A    between atoms: C_5  and  C_8
REMARK    3  A    between atoms: C_8  and  C_9
REMARK    4  A    between atoms: C_8  and  C_10
REMARK                            x       y       z     vdW  Elec       q    Type
REMARK                         _______ _______ _______ _____ _____    ______ ____
ROOT
ATOM      1  C   UNL     1       7.337  -5.143  23.656  0.00  0.00    +0.000 C 
ATOM      2  C   UNL     1       8.091  -3.855  23.492  0.00  0.00    +0.000 C 
ATOM      3  C   UNL     1       9.137  -3.529  24.263  0.00  0.00    +0.000 C 
ATOM      4  C   UNL     1       9.874  -2.303  24.082  0.00  0.00    +0.000 C 
ATOM      5  C   UNL     1       9.562  -1.398  23.136  0.00  0.00    +0.000 C 
ATOM      6  C   UNL     1       8.383  -1.625  22.212  0.00  0.00    +0.000 C 
ATOM      7  C   UNL     1       7.606  -2.943  22.395  0.00  0.00    +0.000 C 
ENDROOT
BRANCH   5   8
ATOM      8  C   UNL     1      10.385  -0.129  22.959  0.00  0.00    +0.000 C 
ATOM      9  C   UNL     1       9.783   0.800  21.900  0.00  0.00    +0.000 C 
ATOM     10  C   UNL     1      10.586   0.624  24.276  0.00  0.00    +0.000 C 
ENDBRANCH   5   8
TORSDOF 1
ENDMDL
MODEL 5
REMARK VINA RESULT:      -4.2      1.471      5.237
REMARK  Name = 
REMARK  4 active torsions:
REMARK  status: ('A' for Active; 'I' for Inactive)
REMARK    1  A    between atoms: C_1  and  C_2
REMARK    2  A    between atoms: C_5  and  C_8
REMARK    3  A    between atoms: C_8  and  C_9
REMARK    4  A    between atoms: C_8  and  C_10
REMARK                            x       y       z     vdW  Elec       q    Type
REMARK                         _______ _______ _______ _____ _____    ______ ____
ROOT
ATOM      1  C   UNL     1       6.854  -5.246  23.982  0.00  0.00    +0.000 C 
ATOM      2  C   UNL     1       7.712  -4.079  23.587  0.00  0.00    +0.000 C 
ATOM      3  C   UNL     1       7.395  -3.264  22.572  0.00  0.00    +0.000 C 
ATOM      4  C   UNL     1       8.209  -2.128  22.215  0.00  0.00    +0.000 C 
ATOM      5  C   UNL     1       9.344  -1.812  22.865  0.00  0.00    +0.000 C 
ATOM      6  C   UNL     1       9.837  -2.667  24.015  0.00  0.00    +0.000 C 
ATOM      7  C   UNL     1       8.958  -3.870  24.407  0.00  0.00    +0.000 C 
ENDROOT
BRANCH   5   8
ATOM      8  C   UNL     1      10.160  -0.586  22.475  0.00  0.00    +0.000 C 
ATOM      9  C   UNL     1       9.408   0.313  21.492  0.00  0.00    +0.000 C 
ATOM     10  C   UNL     1      10.617   0.220  23.694  0.00  0.00    +0.000 C 
ENDBRANCH   5   8
TORSDOF 1
ENDMDL
MODEL 6
REMARK VINA RESULT:      -4.2      1.066      4.503
REMARK  Name = 
REMARK  4 active torsions:
REMARK  status: ('A' for Active; 'I' for Inactive)
REMARK    1  A    between atoms: C_1  and  C_2
REMARK    2  A    between atoms: C_5  and  C_8
REMARK    3  A    between atoms: C_8  and  C_9
REMARK    4  A    between atoms: C_8  and  C_10
REMARK                            x       y       z     vdW  Elec       q    Type
REMARK                         _______ _______ _______ _____ _____    ______ ____
ROOT
ATOM      1  C   UNL     1       9.309  -3.613  24.797  0.00  0.00    +0.000 C 
ATOM      2  C   UNL     1       9.511  -2.248  24.204  0.00  0.00    +0.000 C 
ATOM      3  C   UNL     1       9.895  -2.065  22.934  0.00  0.00    +0.000 C 
ATOM      4  C   UNL     1      10.060  -0.751  22.362  0.00  0.00    +0.000 C 
ATOM      5  C   UNL     1       9.849   0.379  23.060  0.00  0.00    +0.000 C 
ATOM      6  C   UNL     1       9.438   0.319  24.517  0.00  0.00    +0.000 C 
ATOM      7  C   UNL     1       9.246  -1.085  25.123  0.00  0.00    +0.000 C 
ENDROOT
BRANCH   5   8
ATOM      8  C   UNL     1      10.005   1.748  22.410  0.00  0.00    +0.000 C 
ATOM      9  C   UNL     1       8.682   2.264  21.838  0.00  0.00    +0.000 C 
ATOM     10  C   UNL     1      10.612   2.779  23.364  0.00  0.00    +0.000 C 
ENDBRANCH   5   8
TORSDOF 1
ENDMDL
MODEL 7
REMARK VINA RESULT:      -4.2      1.791      4.837
REMARK  Name = 
REMARK  4 active torsions:
REMARK  status: ('A' for Active; 'I' for Inactive)
REMARK    1  A    between atoms: C_1  and  C_2
REMARK    2  A    between atoms: C_5  and  C_8
REMARK    3  A    between atoms: C_8  and  C_9
REMARK    4  A    between atoms: C_8  and  C_10
REMARK                            x       y       z     vdW  Elec       q    Type
REMARK                         _______ _______ _______ _____ _____    ______ ____
ROOT
ATOM      1  C   UNL     1      10.209  -1.520  22.242  0.00  0.00    +0.000 C 
ATOM      2  C   UNL     1       9.881  -0.081  22.520  0.00  0.00    +0.000 C 
ATOM      3  C   UNL     1       9.155   0.667  21.679  0.00  0.00    +0.000 C 
ATOM      4  C   UNL     1       8.820   2.040  21.964  0.00  0.00    +0.000 C 
ATOM      5  C   UNL     1       9.217   2.669  23.085  0.00  0.00    +0.000 C 
ATOM      6  C   UNL     1      10.070   1.950  24.111  0.00  0.00    +0.000 C 
ATOM      7  C   UNL     1      10.413   0.478  23.813  0.00  0.00    +0.000 C 
ENDROOT
BRANCH   5   8
ATOM      8  C   UNL     1       8.817   4.112  23.363  0.00  0.00    +0.000 C 
ATOM      9  C   UNL     1       7.540   4.506  22.617  0.00  0.00    +0.000 C 
ATOM     10  C   UNL     1       8.668   4.397  24.860  0.00  0.00    +0.000 C 
ENDBRANCH   5   8
TORSDOF 1
ENDMDL
MODEL 8
REMARK VINA RESULT:      -4.1      2.167      5.391
REMARK  Name = 
REMARK  4 active torsions:
REMARK  status: ('A' for Active; 'I' for Inactive)
REMARK    1  A    between atoms: C_1  and  C_2
REMARK    2  A    between atoms: C_5  and  C_8
REMARK    3  A    between atoms: C_8  and  C_9
REMARK    4  A    between atoms: C_8  and  C_10
REMARK                            x       y       z     vdW  Elec       q    Type
REMARK                         _______ _______ _______ _____ _____    ______ ____
ROOT
ATOM      1  C   UNL     1       9.436   0.003  21.446  0.00  0.00    +0.000 C 
ATOM      2  C   UNL     1       9.287   1.357  22.077  0.00  0.00    +0.000 C 
ATOM      3  C   UNL     1      10.235   1.896  22.856  0.00  0.00    +0.000 C 
ATOM      4  C   UNL     1      10.098   3.210  23.436  0.00  0.00    +0.000 C 
ATOM      5  C   UNL     1       9.012   3.980  23.245  0.00  0.00    +0.000 C 
ATOM      6  C   UNL     1       7.851   3.483  22.409  0.00  0.00    +0.000 C 
ATOM      7  C   UNL     1       8.004   2.086  21.776  0.00  0.00    +0.000 C 
ENDROOT
BRANCH   5   8
ATOM      8  C   UNL     1       8.919   5.375  23.852  0.00  0.00    +0.000 C 
ATOM      9  C   UNL     1      10.295   5.924  24.236  0.00  0.00    +0.000 C 
ATOM     10  C   UNL     1       8.188   6.360  22.937  0.00  0.00    +0.000 C 
ENDBRANCH   5   8
TORSDOF 1
ENDMDL
MODEL 9
REMARK VINA RESULT:      -4.1      1.920      2.393
REMARK  Name = 
REMARK  4 active torsions:
REMARK  status: ('A' for Active; 'I' for Inactive)
REMARK    1  A    between atoms: C_1  and  C_2
REMARK    2  A    between atoms: C_5  and  C_8
REMARK    3  A    between atoms: C_8  and  C_9
REMARK    4  A    between atoms: C_8  and  C_10
REMARK                            x       y       z     vdW  Elec       q    Type
REMARK                         _______ _______ _______ _____ _____    ______ ____
ROOT
ATOM      1  C   UNL     1       7.120   3.427  22.019  0.00  0.00    +0.000 C 
ATOM      2  C   UNL     1       7.606   2.015  22.172  0.00  0.00    +0.000 C 
ATOM      3  C   UNL     1       6.901   1.078  22.821  0.00  0.00    +0.000 C 
ATOM      4  C   UNL     1       7.360  -0.285  22.940  0.00  0.00    +0.000 C 
ATOM      5  C   UNL     1       8.525  -0.709  22.419  0.00  0.00    +0.000 C 
ATOM      6  C   UNL     1       9.437   0.253  21.685  0.00  0.00    +0.000 C 
ATOM      7  C   UNL     1       8.939   1.704  21.543  0.00  0.00    +0.000 C 
ENDROOT
BRANCH   5   8
ATOM      8  C   UNL     1       8.960  -2.164  22.542  0.00  0.00    +0.000 C 
ATOM      9  C   UNL     1       9.814  -2.403  23.790  0.00  0.00    +0.000 C 
ATOM     10  C   UNL     1       7.773  -3.130  22.516  0.00  0.00    +0.000 C 
ENDBRANCH   5   8
TORSDOF 1
ENDMDL
