MODEL 1
REMARK VINA RESULT:      -9.0      0.000      0.000
REMARK  Name = 
REMARK  11 active torsions:
REMARK  status: ('A' for Active; 'I' for Inactive)
REMARK    1  A    between atoms: C_1  and  C_2
REMARK    2  A    between atoms: C_2  and  C_34
REMARK    3  A    between atoms: C_5  and  C_31
REMARK    4  A    between atoms: C_8  and  C_30
REMARK    5  A    between atoms: C_13  and  C_27
REMARK    6  A    between atoms: C_17  and  C_26
REMARK    7  A    between atoms: C_19  and  O_25
REMARK    8  A    between atoms: C_20  and  O_24
REMARK    9  A    between atoms: C_21  and  C_22
REMARK   10  A    between atoms: C_21  and  C_23
REMARK   11  A    between atoms: C_31  and  O_33
REMARK                            x       y       z     vdW  Elec       q    Type
REMARK                         _______ _______ _______ _____ _____    ______ ____
ROOT
ATOM      1  C   UNL     1       6.466  -5.540  21.461  0.00  0.00    +0.000 C 
ATOM      2  C   UNL     1       6.375  -4.672  22.732  0.00  0.00    +0.000 C 
ATOM      3  C   UNL     1       7.159  -5.395  23.851  0.00  0.00    +0.000 C 
ATOM      4  C   UNL     1       7.338  -4.564  25.127  0.00  0.00    +0.000 C 
ATOM      5  C   UNL     1       8.112  -3.257  24.805  0.00  0.00    +0.000 C 
ATOM      6  C   UNL     1       8.312  -2.390  26.055  0.00  0.00    +0.000 C 
ATOM      7  C   UNL     1       9.052  -1.101  25.636  0.00  0.00    +0.000 C 
ATOM      8  C   UNL     1       8.122  -0.192  24.809  0.00  0.00    +0.000 C 
ATOM      9  C   UNL     1       7.286  -0.949  23.698  0.00  0.00    +0.000 C 
ATOM     10  C   UNL     1       6.818  -0.266  22.610  0.00  0.00    +0.000 C 
ATOM     11  C   UNL     1       7.032   1.230  22.302  0.00  0.00    +0.000 C 
ATOM     12  C   UNL     1       7.690   1.872  23.527  0.00  0.00    +0.000 C 
ATOM     13  C   UNL     1       8.892   0.951  23.971  0.00  0.00    +0.000 C 
ATOM     14  C   UNL     1       9.994   1.779  24.636  0.00  0.00    +0.000 C 
ATOM     15  C   UNL     1      10.277   3.115  23.911  0.00  0.00    +0.000 C 
ATOM     16  C   UNL     1       9.086   4.010  23.405  0.00  0.00    +0.000 C 
ATOM     17  C   UNL     1       7.730   3.423  23.845  0.00  0.00    +0.000 C 
ATOM     18  C   UNL     1       7.569   3.668  25.401  0.00  0.00    +0.000 C 
ATOM     19  C   UNL     1       7.943   5.039  25.974  0.00  0.00    +0.000 C 
ATOM     20  C   UNL     1       9.206   5.669  25.359  0.00  0.00    +0.000 C 
ATOM     21  C   UNL     1       9.315   5.529  23.815  0.00  0.00    +0.000 C 
ATOM     22  C   UNL     1      10.732   5.983  23.360  0.00  0.00    +0.000 C 
ATOM     23  C   UNL     1       8.364   6.515  23.100  0.00  0.00    +0.000 C 
ATOM     24  C   UNL     1       6.471   4.010  23.162  0.00  0.00    +0.000 C 
ATOM     25  C   UNL     1       9.696   0.251  22.772  0.00  0.00    +0.000 C 
ATOM     26  C   UNL     1       7.172  -2.473  23.813  0.00  0.00    +0.000 C 
ATOM     27  C   UNL     1       6.987  -3.274  22.481  0.00  0.00    +0.000 C 
ATOM     28  C   UNL     1       7.164   0.379  25.944  0.00  0.00    +0.000 C 
ATOM     29  C   UNL     1       4.877  -4.507  23.082  0.00  0.00    +0.000 C 
ENDROOT
BRANCH  20  30
ATOM     30  O   UNL     1       9.285   7.043  25.755  0.00  0.00    +0.000 OA
ATOM     31  H   UNL     1       8.372   7.393  25.671  0.00  0.00    +0.000 HD
ENDBRANCH  20  30
BRANCH  19  32
ATOM     32  O   UNL     1       6.865   5.978  25.963  0.00  0.00    +0.000 OA
ATOM     33  H   UNL     1       6.831   6.441  26.813  0.00  0.00    +0.000 HD
ENDBRANCH  19  32
BRANCH   5  34
ATOM     34  C   UNL     1       9.553  -3.735  24.485  0.00  0.00    +0.000 C 
ATOM     35  O   UNL     1      10.263  -3.144  23.670  0.00  0.00    +0.000 OA
BRANCH  34  36
ATOM     36  O   UNL     1       9.995  -4.847  25.079  0.00  0.00    +0.000 OA
ATOM     37  H   UNL     1       9.914  -5.656  24.557  0.00  0.00    +0.000 HD
ENDBRANCH  34  36
ENDBRANCH   5  34
TORSDOF 4
ENDMDL
MODEL 2
REMARK VINA RESULT:      -8.6      2.991      8.561
REMARK  Name = 
REMARK  11 active torsions:
REMARK  status: ('A' for Active; 'I' for Inactive)
REMARK    1  A    between atoms: C_1  and  C_2
REMARK    2  A    between atoms: C_2  and  C_34
REMARK    3  A    between atoms: C_5  and  C_31
REMARK    4  A    between atoms: C_8  and  C_30
REMARK    5  A    between atoms: C_13  and  C_27
REMARK    6  A    between atoms: C_17  and  C_26
REMARK    7  A    between atoms: C_19  and  O_25
REMARK    8  A    between atoms: C_20  and  O_24
REMARK    9  A    between atoms: C_21  and  C_22
REMARK   10  A    between atoms: C_21  and  C_23
REMARK   11  A    between atoms: C_31  and  O_33
REMARK                            x       y       z     vdW  Elec       q    Type
REMARK                         _______ _______ _______ _____ _____    ______ ____
ROOT
ATOM      1  C   UNL     1       9.072   3.758  23.919  0.00  0.00    +0.000 C 
ATOM      2  C   UNL     1       8.532   2.575  23.090  0.00  0.00    +0.000 C 
ATOM      3  C   UNL     1       9.693   2.044  22.219  0.00  0.00    +0.000 C 
ATOM      4  C   UNL     1       9.376   0.735  21.485  0.00  0.00    +0.000 C 
ATOM      5  C   UNL     1       9.034  -0.380  22.510  0.00  0.00    +0.000 C 
ATOM      6  C   UNL     1       8.706  -1.709  21.818  0.00  0.00    +0.000 C 
ATOM      7  C   UNL     1       8.342  -2.743  22.906  0.00  0.00    +0.000 C 
ATOM      8  C   UNL     1       6.974  -2.406  23.530  0.00  0.00    +0.000 C 
ATOM      9  C   UNL     1       6.774  -0.876  23.881  0.00  0.00    +0.000 C 
ATOM     10  C   UNL     1       5.874  -0.506  24.842  0.00  0.00    +0.000 C 
ATOM     11  C   UNL     1       4.995  -1.448  25.688  0.00  0.00    +0.000 C 
ATOM     12  C   UNL     1       5.152  -2.866  25.130  0.00  0.00    +0.000 C 
ATOM     13  C   UNL     1       6.693  -3.143  24.938  0.00  0.00    +0.000 C 
ATOM     14  C   UNL     1       7.002  -4.633  25.099  0.00  0.00    +0.000 C 
ATOM     15  C   UNL     1       6.244  -5.291  26.276  0.00  0.00    +0.000 C 
ATOM     16  C   UNL     1       4.723  -4.970  26.516  0.00  0.00    +0.000 C 
ATOM     17  C   UNL     1       4.164  -4.075  25.393  0.00  0.00    +0.000 C 
ATOM     18  C   UNL     1       4.018  -4.957  24.087  0.00  0.00    +0.000 C 
ATOM     19  C   UNL     1       3.418  -6.362  24.208  0.00  0.00    +0.000 C 
ATOM     20  C   UNL     1       3.863  -7.144  25.457  0.00  0.00    +0.000 C 
ATOM     21  C   UNL     1       3.902  -6.309  26.767  0.00  0.00    +0.000 C 
ATOM     22  C   UNL     1       4.594  -7.142  27.884  0.00  0.00    +0.000 C 
ATOM     23  C   UNL     1       2.476  -6.069  27.314  0.00  0.00    +0.000 C 
ATOM     24  C   UNL     1       2.784  -3.421  25.654  0.00  0.00    +0.000 C 
ATOM     25  C   UNL     1       7.649  -2.496  26.052  0.00  0.00    +0.000 C 
ATOM     26  C   UNL     1       7.728   0.131  23.230  0.00  0.00    +0.000 C 
ATOM     27  C   UNL     1       8.016   1.451  24.019  0.00  0.00    +0.000 C 
ATOM     28  C   UNL     1       5.987  -2.852  22.365  0.00  0.00    +0.000 C 
ATOM     29  C   UNL     1       7.354   3.099  22.235  0.00  0.00    +0.000 C 
ENDROOT
BRANCH  20  30
ATOM     30  O   UNL     1       3.029  -8.298  25.610  0.00  0.00    +0.000 OA
ATOM     31  H   UNL     1       3.056  -8.757  24.744  0.00  0.00    +0.000 HD
ENDBRANCH  20  30
BRANCH  19  32
ATOM     32  O   UNL     1       1.993  -6.389  24.090  0.00  0.00    +0.000 OA
ATOM     33  H   UNL     1       1.712  -7.257  23.765  0.00  0.00    +0.000 HD
ENDBRANCH  19  32
BRANCH   5  34
ATOM     34  C   UNL     1      10.384  -0.682  23.212  0.00  0.00    +0.000 C 
ATOM     35  O   UNL     1      11.317  -1.219  22.613  0.00  0.00    +0.000 OA
BRANCH  34  36
ATOM     36  O   UNL     1      10.498  -0.392  24.511  0.00  0.00    +0.000 OA
ATOM     37  H   UNL     1      10.284   0.519  24.753  0.00  0.00    +0.000 HD
ENDBRANCH  34  36
ENDBRANCH   5  34
TORSDOF 4
ENDMDL
MODEL 3
REMARK VINA RESULT:      -7.8      1.966      8.298
REMARK  Name = 
REMARK  11 active torsions:
REMARK  status: ('A' for Active; 'I' for Inactive)
REMARK    1  A    between atoms: C_1  and  C_2
REMARK    2  A    between atoms: C_2  and  C_34
REMARK    3  A    between atoms: C_5  and  C_31
REMARK    4  A    between atoms: C_8  and  C_30
REMARK    5  A    between atoms: C_13  and  C_27
REMARK    6  A    between atoms: C_17  and  C_26
REMARK    7  A    between atoms: C_19  and  O_25
REMARK    8  A    between atoms: C_20  and  O_24
REMARK    9  A    between atoms: C_21  and  C_22
REMARK   10  A    between atoms: C_21  and  C_23
REMARK   11  A    between atoms: C_31  and  O_33
REMARK                            x       y       z     vdW  Elec       q    Type
REMARK                         _______ _______ _______ _____ _____    ______ ____
ROOT
ATOM      1  C   UNL     1       8.347   6.776  27.060  0.00  0.00    +0.000 C 
ATOM      2  C   UNL     1       7.795   6.036  25.825  0.00  0.00    +0.000 C 
ATOM      3  C   UNL     1       8.543   6.572  24.583  0.00  0.00    +0.000 C 
ATOM      4  C   UNL     1       8.256   5.791  23.295  0.00  0.00    +0.000 C 
ATOM      5  C   UNL     1       8.674   4.306  23.468  0.00  0.00    +0.000 C 
ATOM      6  C   UNL     1       8.401   3.485  22.202  0.00  0.00    +0.000 C 
ATOM      7  C   UNL     1       8.809   2.021  22.477  0.00  0.00    +0.000 C 
ATOM      8  C   UNL     1       7.818   1.363  23.458  0.00  0.00    +0.000 C 
ATOM      9  C   UNL     1       7.436   2.262  24.703  0.00  0.00    +0.000 C 
ATOM     10  C   UNL     1       6.992   1.679  25.857  0.00  0.00    +0.000 C 
ATOM     11  C   UNL     1       6.826   0.169  26.119  0.00  0.00    +0.000 C 
ATOM     12  C   UNL     1       7.052  -0.565  24.794  0.00  0.00    +0.000 C 
ATOM     13  C   UNL     1       8.369   0.009  24.140  0.00  0.00    +0.000 C 
ATOM     14  C   UNL     1       9.060  -1.056  23.285  0.00  0.00    +0.000 C 
ATOM     15  C   UNL     1       9.076  -2.454  23.944  0.00  0.00    +0.000 C 
ATOM     16  C   UNL     1       7.788  -3.009  24.657  0.00  0.00    +0.000 C 
ATOM     17  C   UNL     1       6.598  -2.048  24.472  0.00  0.00    +0.000 C 
ATOM     18  C   UNL     1       6.106  -2.156  22.971  0.00  0.00    +0.000 C 
ATOM     19  C   UNL     1       5.973  -3.545  22.337  0.00  0.00    +0.000 C 
ATOM     20  C   UNL     1       7.093  -4.532  22.711  0.00  0.00    +0.000 C 
ATOM     21  C   UNL     1       7.505  -4.509  24.209  0.00  0.00    +0.000 C 
ATOM     22  C   UNL     1       8.793  -5.361  24.399  0.00  0.00    +0.000 C 
ATOM     23  C   UNL     1       6.453  -5.229  25.084  0.00  0.00    +0.000 C 
ATOM     24  C   UNL     1       5.363  -2.298  25.371  0.00  0.00    +0.000 C 
ATOM     25  C   UNL     1       9.533   0.395  25.174  0.00  0.00    +0.000 C 
ATOM     26  C   UNL     1       7.738   3.762  24.614  0.00  0.00    +0.000 C 
ATOM     27  C   UNL     1       8.022   4.512  25.958  0.00  0.00    +0.000 C 
ATOM     28  C   UNL     1       6.556   1.140  22.515  0.00  0.00    +0.000 C 
ATOM     29  C   UNL     1       6.274   6.311  25.752  0.00  0.00    +0.000 C 
ENDROOT
BRANCH  20  30
ATOM     30  O   UNL     1       6.711  -5.851  22.305  0.00  0.00    +0.000 OA
ATOM     31  H   UNL     1       7.408  -6.445  22.656  0.00  0.00    +0.000 HD
ENDBRANCH  20  30
BRANCH  19  32
ATOM     32  O   UNL     1       4.693  -4.148  22.542  0.00  0.00    +0.000 OA
ATOM     33  H   UNL     1       4.600  -4.400  23.473  0.00  0.00    +0.000 HD
ENDBRANCH  19  32
BRANCH   5  34
ATOM     34  C   UNL     1      10.224   4.349  23.522  0.00  0.00    +0.000 C 
ATOM     35  O   UNL     1      10.873   3.499  24.134  0.00  0.00    +0.000 OA
BRANCH  34  36
ATOM     36  O   UNL     1      10.848   5.370  22.928  0.00  0.00    +0.000 OA
ATOM     37  H   UNL     1      10.479   6.244  23.110  0.00  0.00    +0.000 HD
ENDBRANCH  34  36
ENDBRANCH   5  34
TORSDOF 4
ENDMDL
MODEL 4
REMARK VINA RESULT:      -7.6      2.101      8.387
REMARK  Name = 
REMARK  11 active torsions:
REMARK  status: ('A' for Active; 'I' for Inactive)
REMARK    1  A    between atoms: C_1  and  C_2
REMARK    2  A    between atoms: C_2  and  C_34
REMARK    3  A    between atoms: C_5  and  C_31
REMARK    4  A    between atoms: C_8  and  C_30
REMARK    5  A    between atoms: C_13  and  C_27
REMARK    6  A    between atoms: C_17  and  C_26
REMARK    7  A    between atoms: C_19  and  O_25
REMARK    8  A    between atoms: C_20  and  O_24
REMARK    9  A    between atoms: C_21  and  C_22
REMARK   10  A    between atoms: C_21  and  C_23
REMARK   11  A    between atoms: C_31  and  O_33
REMARK                            x       y       z     vdW  Elec       q    Type
REMARK                         _______ _______ _______ _____ _____    ______ ____
ROOT
ATOM      1  C   UNL     1       9.817   6.632  23.737  0.00  0.00    +0.000 C 
ATOM      2  C   UNL     1       8.784   5.812  24.536  0.00  0.00    +0.000 C 
ATOM      3  C   UNL     1       7.378   6.322  24.147  0.00  0.00    +0.000 C 
ATOM      4  C   UNL     1       6.229   5.471  24.702  0.00  0.00    +0.000 C 
ATOM      5  C   UNL     1       6.344   4.015  24.175  0.00  0.00    +0.000 C 
ATOM      6  C   UNL     1       5.214   3.125  24.709  0.00  0.00    +0.000 C 
ATOM      7  C   UNL     1       5.429   1.694  24.168  0.00  0.00    +0.000 C 
ATOM      8  C   UNL     1       6.647   1.040  24.849  0.00  0.00    +0.000 C 
ATOM      9  C   UNL     1       7.917   1.978  24.959  0.00  0.00    +0.000 C 
ATOM     10  C   UNL     1       9.165   1.431  25.073  0.00  0.00    +0.000 C 
ATOM     11  C   UNL     1       9.510  -0.071  25.088  0.00  0.00    +0.000 C 
ATOM     12  C   UNL     1       8.196  -0.856  25.157  0.00  0.00    +0.000 C 
ATOM     13  C   UNL     1       7.216  -0.256  24.075  0.00  0.00    +0.000 C 
ATOM     14  C   UNL     1       6.253  -1.328  23.561  0.00  0.00    +0.000 C 
ATOM     15  C   UNL     1       6.935  -2.693  23.308  0.00  0.00    +0.000 C 
ATOM     16  C   UNL     1       7.964  -3.269  24.348  0.00  0.00    +0.000 C 
ATOM     17  C   UNL     1       8.048  -2.369  25.597  0.00  0.00    +0.000 C 
ATOM     18  C   UNL     1       6.722  -2.569  26.438  0.00  0.00    +0.000 C 
ATOM     19  C   UNL     1       6.189  -3.990  26.650  0.00  0.00    +0.000 C 
ATOM     20  C   UNL     1       6.306  -4.909  25.420  0.00  0.00    +0.000 C 
ATOM     21  C   UNL     1       7.652  -4.799  24.653  0.00  0.00    +0.000 C 
ATOM     22  C   UNL     1       7.544  -5.584  23.315  0.00  0.00    +0.000 C 
ATOM     23  C   UNL     1       8.786  -5.522  25.416  0.00  0.00    +0.000 C 
ATOM     24  C   UNL     1       9.235  -2.631  26.557  0.00  0.00    +0.000 C 
ATOM     25  C   UNL     1       7.914   0.228  22.714  0.00  0.00    +0.000 C 
ATOM     26  C   UNL     1       7.704   3.484  24.768  0.00  0.00    +0.000 C 
ATOM     27  C   UNL     1       8.909   4.307  24.202  0.00  0.00    +0.000 C 
ATOM     28  C   UNL     1       6.057   0.720  26.291  0.00  0.00    +0.000 C 
ATOM     29  C   UNL     1       9.084   6.018  26.040  0.00  0.00    +0.000 C 
ENDROOT
BRANCH  20  30
ATOM     30  O   UNL     1       6.053  -6.261  25.820  0.00  0.00    +0.000 OA
ATOM     31  H   UNL     1       6.097  -6.790  24.995  0.00  0.00    +0.000 HD
ENDBRANCH  20  30
BRANCH  19  32
ATOM     32  O   UNL     1       6.727  -4.638  27.805  0.00  0.00    +0.000 OA
ATOM     33  H   UNL     1       6.971  -3.972  28.465  0.00  0.00    +0.000 HD
ENDBRANCH  19  32
BRANCH   5  34
ATOM     34  C   UNL     1       6.008   4.127  22.665  0.00  0.00    +0.000 C 
ATOM     35  O   UNL     1       6.780   3.711  21.799  0.00  0.00    +0.000 OA
BRANCH  34  36
ATOM     36  O   UNL     1       4.875   4.741  22.314  0.00  0.00    +0.000 OA
ATOM     37  H   UNL     1       4.166   4.160  22.009  0.00  0.00    +0.000 HD
ENDBRANCH  34  36
ENDBRANCH   5  34
TORSDOF 4
ENDMDL
MODEL 5
REMARK VINA RESULT:      -7.5      1.856      8.232
REMARK  Name = 
REMARK  11 active torsions:
REMARK  status: ('A' for Active; 'I' for Inactive)
REMARK    1  A    between atoms: C_1  and  C_2
REMARK    2  A    between atoms: C_2  and  C_34
REMARK    3  A    between atoms: C_5  and  C_31
REMARK    4  A    between atoms: C_8  and  C_30
REMARK    5  A    between atoms: C_13  and  C_27
REMARK    6  A    between atoms: C_17  and  C_26
REMARK    7  A    between atoms: C_19  and  O_25
REMARK    8  A    between atoms: C_20  and  O_24
REMARK    9  A    between atoms: C_21  and  C_22
REMARK   10  A    between atoms: C_21  and  C_23
REMARK   11  A    between atoms: C_31  and  O_33
REMARK                            x       y       z     vdW  Elec       q    Type
REMARK                         _______ _______ _______ _____ _____    ______ ____
ROOT
ATOM      1  C   UNL     1       4.616   7.040  24.879  0.00  0.00    +0.000 C 
ATOM      2  C   UNL     1       5.111   6.021  23.832  0.00  0.00    +0.000 C 
ATOM      3  C   UNL     1       6.351   6.627  23.138  0.00  0.00    +0.000 C 
ATOM      4  C   UNL     1       7.087   5.652  22.211  0.00  0.00    +0.000 C 
ATOM      5  C   UNL     1       7.578   4.419  23.017  0.00  0.00    +0.000 C 
ATOM      6  C   UNL     1       8.318   3.414  22.126  0.00  0.00    +0.000 C 
ATOM      7  C   UNL     1       8.734   2.209  22.999  0.00  0.00    +0.000 C 
ATOM      8  C   UNL     1       7.496   1.379  23.392  0.00  0.00    +0.000 C 
ATOM      9  C   UNL     1       6.258   2.238  23.874  0.00  0.00    +0.000 C 
ATOM     10  C   UNL     1       5.311   1.679  24.687  0.00  0.00    +0.000 C 
ATOM     11  C   UNL     1       5.309   0.239  25.239  0.00  0.00    +0.000 C 
ATOM     12  C   UNL     1       6.448  -0.527  24.559  0.00  0.00    +0.000 C 
ATOM     13  C   UNL     1       7.744   0.371  24.628  0.00  0.00    +0.000 C 
ATOM     14  C   UNL     1       9.004  -0.496  24.669  0.00  0.00    +0.000 C 
ATOM     15  C   UNL     1       8.871  -1.725  25.599  0.00  0.00    +0.000 C 
ATOM     16  C   UNL     1       7.556  -2.588  25.587  0.00  0.00    +0.000 C 
ATOM     17  C   UNL     1       6.587  -2.102  24.491  0.00  0.00    +0.000 C 
ATOM     18  C   UNL     1       7.174  -2.540  23.087  0.00  0.00    +0.000 C 
ATOM     19  C   UNL     1       7.733  -3.958  22.930  0.00  0.00    +0.000 C 
ATOM     20  C   UNL     1       8.535  -4.469  24.141  0.00  0.00    +0.000 C 
ATOM     21  C   UNL     1       7.906  -4.139  25.523  0.00  0.00    +0.000 C 
ATOM     22  C   UNL     1       8.925  -4.488  26.645  0.00  0.00    +0.000 C 
ATOM     23  C   UNL     1       6.701  -5.059  25.818  0.00  0.00    +0.000 C 
ATOM     24  C   UNL     1       5.138  -2.641  24.563  0.00  0.00    +0.000 C 
ATOM     25  C   UNL     1       7.907   1.237  25.968  0.00  0.00    +0.000 C 
ATOM     26  C   UNL     1       6.257   3.733  23.535  0.00  0.00    +0.000 C 
ATOM     27  C   UNL     1       5.489   4.684  24.511  0.00  0.00    +0.000 C 
ATOM     28  C   UNL     1       7.172   0.643  22.019  0.00  0.00    +0.000 C 
ATOM     29  C   UNL     1       3.952   5.768  22.839  0.00  0.00    +0.000 C 
ENDROOT
BRANCH  20  30
ATOM     30  O   UNL     1       8.751  -5.878  24.000  0.00  0.00    +0.000 OA
ATOM     31  H   UNL     1       8.012  -6.201  23.441  0.00  0.00    +0.000 HD
ENDBRANCH  20  30
BRANCH  19  32
ATOM     32  O   UNL     1       6.750  -4.923  22.546  0.00  0.00    +0.000 OA
ATOM     33  H   UNL     1       6.036  -4.936  23.200  0.00  0.00    +0.000 HD
ENDBRANCH  19  32
BRANCH   5  34
ATOM     34  C   UNL     1       8.710   4.978  23.919  0.00  0.00    +0.000 C 
ATOM     35  O   UNL     1       8.673   4.866  25.145  0.00  0.00    +0.000 OA
BRANCH  34  36
ATOM     36  O   UNL     1       9.713   5.639  23.335  0.00  0.00    +0.000 OA
ATOM     37  H   UNL     1       9.667   5.696  22.372  0.00  0.00    +0.000 HD
ENDBRANCH  34  36
ENDBRANCH   5  34
TORSDOF 4
ENDMDL
MODEL 6
REMARK VINA RESULT:      -7.3      3.288      5.182
REMARK  Name = 
REMARK  11 active torsions:
REMARK  status: ('A' for Active; 'I' for Inactive)
REMARK    1  A    between atoms: C_1  and  C_2
REMARK    2  A    between atoms: C_2  and  C_34
REMARK    3  A    between atoms: C_5  and  C_31
REMARK    4  A    between atoms: C_8  and  C_30
REMARK    5  A    between atoms: C_13  and  C_27
REMARK    6  A    between atoms: C_17  and  C_26
REMARK    7  A    between atoms: C_19  and  O_25
REMARK    8  A    between atoms: C_20  and  O_24
REMARK    9  A    between atoms: C_21  and  C_22
REMARK   10  A    between atoms: C_21  and  C_23
REMARK   11  A    between atoms: C_31  and  O_33
REMARK                            x       y       z     vdW  Elec       q    Type
REMARK                         _______ _______ _______ _____ _____    ______ ____
ROOT
ATOM      1  C   UNL     1       2.511  -5.474  29.760  0.00  0.00    +0.000 C 
ATOM      2  C   UNL     1       3.967  -5.407  29.259  0.00  0.00    +0.000 C 
ATOM      3  C   UNL     1       4.286  -6.750  28.564  0.00  0.00    +0.000 C 
ATOM      4  C   UNL     1       5.632  -6.770  27.829  0.00  0.00    +0.000 C 
ATOM      5  C   UNL     1       5.652  -5.676  26.727  0.00  0.00    +0.000 C 
ATOM      6  C   UNL     1       6.984  -5.657  25.967  0.00  0.00    +0.000 C 
ATOM      7  C   UNL     1       6.928  -4.520  24.922  0.00  0.00    +0.000 C 
ATOM      8  C   UNL     1       6.983  -3.147  25.621  0.00  0.00    +0.000 C 
ATOM      9  C   UNL     1       6.047  -3.020  26.890  0.00  0.00    +0.000 C 
ATOM     10  C   UNL     1       5.619  -1.790  27.305  0.00  0.00    +0.000 C 
ATOM     11  C   UNL     1       5.937  -0.435  26.642  0.00  0.00    +0.000 C 
ATOM     12  C   UNL     1       6.984  -0.680  25.550  0.00  0.00    +0.000 C 
ATOM     13  C   UNL     1       6.509  -1.916  24.692  0.00  0.00    +0.000 C 
ATOM     14  C   UNL     1       7.011  -1.803  23.251  0.00  0.00    +0.000 C 
ATOM     15  C   UNL     1       6.892  -0.374  22.672  0.00  0.00    +0.000 C 
ATOM     16  C   UNL     1       7.301   0.870  23.543  0.00  0.00    +0.000 C 
ATOM     17  C   UNL     1       7.904   0.427  24.890  0.00  0.00    +0.000 C 
ATOM     18  C   UNL     1       9.350  -0.157  24.614  0.00  0.00    +0.000 C 
ATOM     19  C   UNL     1      10.281   0.600  23.660  0.00  0.00    +0.000 C 
ATOM     20  C   UNL     1       9.586   1.191  22.420  0.00  0.00    +0.000 C 
ATOM     21  C   UNL     1       8.215   1.864  22.703  0.00  0.00    +0.000 C 
ATOM     22  C   UNL     1       7.519   2.194  21.351  0.00  0.00    +0.000 C 
ATOM     23  C   UNL     1       8.403   3.246  23.369  0.00  0.00    +0.000 C 
ATOM     24  C   UNL     1       8.058   1.524  25.972  0.00  0.00    +0.000 C 
ATOM     25  C   UNL     1       4.924  -2.026  24.471  0.00  0.00    +0.000 C 
ATOM     26  C   UNL     1       5.520  -4.317  27.515  0.00  0.00    +0.000 C 
ATOM     27  C   UNL     1       4.144  -4.242  28.256  0.00  0.00    +0.000 C 
ATOM     28  C   UNL     1       8.516  -3.079  26.042  0.00  0.00    +0.000 C 
ATOM     29  C   UNL     1       4.875  -5.154  30.485  0.00  0.00    +0.000 C 
ENDROOT
BRANCH  20  30
ATOM     30  O   UNL     1      10.480   2.102  21.771  0.00  0.00    +0.000 OA
ATOM     31  H   UNL     1      11.379   1.835  22.058  0.00  0.00    +0.000 HD
ENDBRANCH  20  30
BRANCH  19  32
ATOM     32  O   UNL     1      11.074   1.599  24.305  0.00  0.00    +0.000 OA
ATOM     33  H   UNL     1      11.988   1.287  24.379  0.00  0.00    +0.000 HD
ENDBRANCH  19  32
BRANCH   5  34
ATOM     34  C   UNL     1       4.653  -6.192  25.658  0.00  0.00    +0.000 C 
ATOM     35  O   UNL     1       4.761  -7.314  25.161  0.00  0.00    +0.000 OA
BRANCH  34  36
ATOM     36  O   UNL     1       3.691  -5.364  25.242  0.00  0.00    +0.000 OA
ATOM     37  H   UNL     1       3.453  -5.440  24.309  0.00  0.00    +0.000 HD
ENDBRANCH  34  36
ENDBRANCH   5  34
TORSDOF 4
ENDMDL
MODEL 7
REMARK VINA RESULT:      -7.3      3.496      5.607
REMARK  Name = 
REMARK  11 active torsions:
REMARK  status: ('A' for Active; 'I' for Inactive)
REMARK    1  A    between atoms: C_1  and  C_2
REMARK    2  A    between atoms: C_2  and  C_34
REMARK    3  A    between atoms: C_5  and  C_31
REMARK    4  A    between atoms: C_8  and  C_30
REMARK    5  A    between atoms: C_13  and  C_27
REMARK    6  A    between atoms: C_17  and  C_26
REMARK    7  A    between atoms: C_19  and  O_25
REMARK    8  A    between atoms: C_20  and  O_24
REMARK    9  A    between atoms: C_21  and  C_22
REMARK   10  A    between atoms: C_21  and  C_23
REMARK   11  A    between atoms: C_31  and  O_33
REMARK                            x       y       z     vdW  Elec       q    Type
REMARK                         _______ _______ _______ _____ _____    ______ ____
ROOT
ATOM      1  C   UNL     1       0.810  -7.518  25.659  0.00  0.00    +0.000 C 
ATOM      2  C   UNL     1       1.470  -6.321  26.373  0.00  0.00    +0.000 C 
ATOM      3  C   UNL     1       1.864  -6.783  27.795  0.00  0.00    +0.000 C 
ATOM      4  C   UNL     1       2.717  -5.769  28.567  0.00  0.00    +0.000 C 
ATOM      5  C   UNL     1       4.039  -5.493  27.800  0.00  0.00    +0.000 C 
ATOM      6  C   UNL     1       4.924  -4.479  28.536  0.00  0.00    +0.000 C 
ATOM      7  C   UNL     1       6.191  -4.237  27.687  0.00  0.00    +0.000 C 
ATOM      8  C   UNL     1       5.841  -3.435  26.418  0.00  0.00    +0.000 C 
ATOM      9  C   UNL     1       4.541  -3.934  25.666  0.00  0.00    +0.000 C 
ATOM     10  C   UNL     1       4.379  -3.674  24.334  0.00  0.00    +0.000 C 
ATOM     11  C   UNL     1       5.370  -2.931  23.416  0.00  0.00    +0.000 C 
ATOM     12  C   UNL     1       6.482  -2.352  24.295  0.00  0.00    +0.000 C 
ATOM     13  C   UNL     1       6.973  -3.493  25.270  0.00  0.00    +0.000 C 
ATOM     14  C   UNL     1       8.446  -3.300  25.634  0.00  0.00    +0.000 C 
ATOM     15  C   UNL     1       9.325  -2.888  24.430  0.00  0.00    +0.000 C 
ATOM     16  C   UNL     1       8.818  -1.800  23.414  0.00  0.00    +0.000 C 
ATOM     17  C   UNL     1       7.478  -1.194  23.879  0.00  0.00    +0.000 C 
ATOM     18  C   UNL     1       7.768  -0.250  25.116  0.00  0.00    +0.000 C 
ATOM     19  C   UNL     1       8.968   0.702  25.053  0.00  0.00    +0.000 C 
ATOM     20  C   UNL     1      10.228   0.104  24.401  0.00  0.00    +0.000 C 
ATOM     21  C   UNL     1       9.961  -0.734  23.120  0.00  0.00    +0.000 C 
ATOM     22  C   UNL     1      11.267  -1.472  22.710  0.00  0.00    +0.000 C 
ATOM     23  C   UNL     1       9.659   0.181  21.912  0.00  0.00    +0.000 C 
ATOM     24  C   UNL     1       6.705  -0.349  22.837  0.00  0.00    +0.000 C 
ATOM     25  C   UNL     1       6.988  -4.969  24.642  0.00  0.00    +0.000 C 
ATOM     26  C   UNL     1       3.579  -4.841  26.440  0.00  0.00    +0.000 C 
ATOM     27  C   UNL     1       2.729  -5.855  25.605  0.00  0.00    +0.000 C 
ATOM     28  C   UNL     1       5.617  -1.982  27.026  0.00  0.00    +0.000 C 
ATOM     29  C   UNL     1       0.443  -5.164  26.399  0.00  0.00    +0.000 C 
ENDROOT
BRANCH  20  30
ATOM     30  O   UNL     1      11.164   1.155  24.139  0.00  0.00    +0.000 OA
ATOM     31  H   UNL     1      12.045   0.724  24.128  0.00  0.00    +0.000 HD
ENDBRANCH  20  30
BRANCH  19  32
ATOM     32  O   UNL     1       8.663   1.971  24.468  0.00  0.00    +0.000 OA
ATOM     33  H   UNL     1       8.265   2.547  25.137  0.00  0.00    +0.000 HD
ENDBRANCH  19  32
BRANCH   5  34
ATOM     34  C   UNL     1       4.842  -6.813  27.935  0.00  0.00    +0.000 C 
ATOM     35  O   UNL     1       5.319  -7.381  26.951  0.00  0.00    +0.000 OA
BRANCH  34  36
ATOM     36  O   UNL     1       4.963  -7.357  29.149  0.00  0.00    +0.000 OA
ATOM     37  H   UNL     1       4.162  -7.766  29.501  0.00  0.00    +0.000 HD
ENDBRANCH  34  36
ENDBRANCH   5  34
TORSDOF 4
ENDMDL
MODEL 8
REMARK VINA RESULT:      -7.1      1.678      8.417
REMARK  Name = 
REMARK  11 active torsions:
REMARK  status: ('A' for Active; 'I' for Inactive)
REMARK    1  A    between atoms: C_1  and  C_2
REMARK    2  A    between atoms: C_2  and  C_34
REMARK    3  A    between atoms: C_5  and  C_31
REMARK    4  A    between atoms: C_8  and  C_30
REMARK    5  A    between atoms: C_13  and  C_27
REMARK    6  A    between atoms: C_17  and  C_26
REMARK    7  A    between atoms: C_19  and  O_25
REMARK    8  A    between atoms: C_20  and  O_24
REMARK    9  A    between atoms: C_21  and  C_22
REMARK   10  A    between atoms: C_21  and  C_23
REMARK   11  A    between atoms: C_31  and  O_33
REMARK                            x       y       z     vdW  Elec       q    Type
REMARK                         _______ _______ _______ _____ _____    ______ ____
ROOT
ATOM      1  C   UNL     1       8.588   6.819  22.886  0.00  0.00    +0.000 C 
ATOM      2  C   UNL     1       8.745   5.884  24.102  0.00  0.00    +0.000 C 
ATOM      3  C   UNL     1       7.877   6.455  25.247  0.00  0.00    +0.000 C 
ATOM      4  C   UNL     1       7.761   5.529  26.464  0.00  0.00    +0.000 C 
ATOM      5  C   UNL     1       7.124   4.176  26.045  0.00  0.00    +0.000 C 
ATOM      6  C   UNL     1       6.993   3.216  27.234  0.00  0.00    +0.000 C 
ATOM      7  C   UNL     1       6.389   1.890  26.720  0.00  0.00    +0.000 C 
ATOM      8  C   UNL     1       7.418   1.131  25.857  0.00  0.00    +0.000 C 
ATOM      9  C   UNL     1       8.191   2.035  24.815  0.00  0.00    +0.000 C 
ATOM     10  C   UNL     1       8.741   1.473  23.696  0.00  0.00    +0.000 C 
ATOM     11  C   UNL     1       8.680  -0.013  23.291  0.00  0.00    +0.000 C 
ATOM     12  C   UNL     1       8.070  -0.794  24.459  0.00  0.00    +0.000 C 
ATOM     13  C   UNL     1       6.777  -0.026  24.934  0.00  0.00    +0.000 C 
ATOM     14  C   UNL     1       5.751  -0.998  25.521  0.00  0.00    +0.000 C 
ATOM     15  C   UNL     1       5.613  -2.306  24.709  0.00  0.00    +0.000 C 
ATOM     16  C   UNL     1       6.894  -3.046  24.174  0.00  0.00    +0.000 C 
ATOM     17  C   UNL     1       8.178  -2.359  24.678  0.00  0.00    +0.000 C 
ATOM     18  C   UNL     1       8.339  -2.687  26.219  0.00  0.00    +0.000 C 
ATOM     19  C   UNL     1       8.094  -4.121  26.698  0.00  0.00    +0.000 C 
ATOM     20  C   UNL     1       6.909  -4.831  26.017  0.00  0.00    +0.000 C 
ATOM     21  C   UNL     1       6.810  -4.604  24.484  0.00  0.00    +0.000 C 
ATOM     22  C   UNL     1       5.452  -5.163  23.971  0.00  0.00    +0.000 C 
ATOM     23  C   UNL     1       7.865  -5.443  23.729  0.00  0.00    +0.000 C 
ATOM     24  C   UNL     1       9.500  -2.775  23.987  0.00  0.00    +0.000 C 
ATOM     25  C   UNL     1       5.926   0.669  23.764  0.00  0.00    +0.000 C 
ATOM     26  C   UNL     1       8.153   3.553  25.026  0.00  0.00    +0.000 C 
ATOM     27  C   UNL     1       8.278   4.453  23.752  0.00  0.00    +0.000 C 
ATOM     28  C   UNL     1       8.410   0.584  26.975  0.00  0.00    +0.000 C 
ATOM     29  C   UNL     1      10.246   5.844  24.473  0.00  0.00    +0.000 C 
ENDROOT
BRANCH  20  30
ATOM     30  O   UNL     1       6.960  -6.229  26.325  0.00  0.00    +0.000 OA
ATOM     31  H   UNL     1       6.170  -6.404  26.879  0.00  0.00    +0.000 HD
ENDBRANCH  20  30
BRANCH  19  32
ATOM     32  O   UNL     1       9.259  -4.949  26.651  0.00  0.00    +0.000 OA
ATOM     33  H   UNL     1       9.150  -5.621  25.963  0.00  0.00    +0.000 HD
ENDBRANCH  19  32
BRANCH   5  34
ATOM     34  C   UNL     1       5.649   4.531  25.725  0.00  0.00    +0.000 C 
ATOM     35  O   UNL     1       5.151   4.289  24.624  0.00  0.00    +0.000 OA
BRANCH  34  36
ATOM     36  O   UNL     1       4.934   5.162  26.660  0.00  0.00    +0.000 OA
ATOM     37  H   UNL     1       5.431   5.447  27.439  0.00  0.00    +0.000 HD
ENDBRANCH  34  36
ENDBRANCH   5  34
TORSDOF 4
ENDMDL
MODEL 9
REMARK VINA RESULT:      -7.1      1.726      8.294
REMARK  Name = 
REMARK  11 active torsions:
REMARK  status: ('A' for Active; 'I' for Inactive)
REMARK    1  A    between atoms: C_1  and  C_2
REMARK    2  A    between atoms: C_2  and  C_34
REMARK    3  A    between atoms: C_5  and  C_31
REMARK    4  A    between atoms: C_8  and  C_30
REMARK    5  A    between atoms: C_13  and  C_27
REMARK    6  A    between atoms: C_17  and  C_26
REMARK    7  A    between atoms: C_19  and  O_25
REMARK    8  A    between atoms: C_20  and  O_24
REMARK    9  A    between atoms: C_21  and  C_22
REMARK   10  A    between atoms: C_21  and  C_23
REMARK   11  A    between atoms: C_31  and  O_33
REMARK                            x       y       z     vdW  Elec       q    Type
REMARK                         _______ _______ _______ _____ _____    ______ ____
ROOT
ATOM      1  C   UNL     1      12.500   5.663  21.817  0.00  0.00    +0.000 C 
ATOM      2  C   UNL     1      11.811   5.060  23.059  0.00  0.00    +0.000 C 
ATOM      3  C   UNL     1      10.765   6.082  23.557  0.00  0.00    +0.000 C 
ATOM      4  C   UNL     1       9.848   5.549  24.665  0.00  0.00    +0.000 C 
ATOM      5  C   UNL     1       9.062   4.311  24.155  0.00  0.00    +0.000 C 
ATOM      6  C   UNL     1       8.133   3.741  25.234  0.00  0.00    +0.000 C 
ATOM      7  C   UNL     1       7.424   2.497  24.654  0.00  0.00    +0.000 C 
ATOM      8  C   UNL     1       8.424   1.333  24.501  0.00  0.00    +0.000 C 
ATOM      9  C   UNL     1       9.815   1.745  23.867  0.00  0.00    +0.000 C 
ATOM     10  C   UNL     1      10.583   0.807  23.235  0.00  0.00    +0.000 C 
ATOM     11  C   UNL     1      10.235  -0.681  23.033  0.00  0.00    +0.000 C 
ATOM     12  C   UNL     1       8.968  -0.981  23.841  0.00  0.00    +0.000 C 
ATOM     13  C   UNL     1       7.915   0.151  23.528  0.00  0.00    +0.000 C 
ATOM     14  C   UNL     1       6.487  -0.384  23.654  0.00  0.00    +0.000 C 
ATOM     15  C   UNL     1       6.305  -1.792  23.041  0.00  0.00    +0.000 C 
ATOM     16  C   UNL     1       7.383  -2.910  23.291  0.00  0.00    +0.000 C 
ATOM     17  C   UNL     1       8.468  -2.421  24.271  0.00  0.00    +0.000 C 
ATOM     18  C   UNL     1       7.835  -2.370  25.721  0.00  0.00    +0.000 C 
ATOM     19  C   UNL     1       6.966  -3.543  26.188  0.00  0.00    +0.000 C 
ATOM     20  C   UNL     1       6.034  -4.121  25.108  0.00  0.00    +0.000 C 
ATOM     21  C   UNL     1       6.684  -4.278  23.705  0.00  0.00    +0.000 C 
ATOM     22  C   UNL     1       5.581  -4.633  22.667  0.00  0.00    +0.000 C 
ATOM     23  C   UNL     1       7.634  -5.496  23.667  0.00  0.00    +0.000 C 
ATOM     24  C   UNL     1       9.750  -3.284  24.367  0.00  0.00    +0.000 C 
ATOM     25  C   UNL     1       7.921   0.694  22.019  0.00  0.00    +0.000 C 
ATOM     26  C   UNL     1      10.172   3.235  23.849  0.00  0.00    +0.000 C 
ATOM     27  C   UNL     1      11.113   3.727  22.699  0.00  0.00    +0.000 C 
ATOM     28  C   UNL     1       8.606   0.884  26.017  0.00  0.00    +0.000 C 
ATOM     29  C   UNL     1      12.905   4.783  24.116  0.00  0.00    +0.000 C 
ENDROOT
BRANCH  20  30
ATOM     30  O   UNL     1       5.501  -5.368  25.567  0.00  0.00    +0.000 OA
ATOM     31  H   UNL     1       6.260  -5.988  25.583  0.00  0.00    +0.000 HD
ENDBRANCH  20  30
BRANCH  19  32
ATOM     32  O   UNL     1       7.707  -4.592  26.815  0.00  0.00    +0.000 OA
ATOM     33  H   UNL     1       7.702  -4.464  27.775  0.00  0.00    +0.000 HD
ENDBRANCH  19  32
BRANCH   5  34
ATOM     34  C   UNL     1       8.067   4.891  23.115  0.00  0.00    +0.000 C 
ATOM     35  O   UNL     1       7.349   5.857  23.378  0.00  0.00    +0.000 OA
BRANCH  34  36
ATOM     36  O   UNL     1       7.964   4.281  21.932  0.00  0.00    +0.000 OA
ATOM     37  H   UNL     1       7.424   4.739  21.275  0.00  0.00    +0.000 HD
ENDBRANCH  34  36
ENDBRANCH   5  34
TORSDOF 4
ENDMDL
