MODEL 1
REMARK VINA RESULT:      -4.8      0.000      0.000
REMARK  Name = 
REMARK  5 active torsions:
REMARK  status: ('A' for Active; 'I' for Inactive)
REMARK    1  A    between atoms: C_1  and  C_2
REMARK    2  A    between atoms: C_5  and  C_8
REMARK    3  A    between atoms: C_8  and  C_9
REMARK    4  A    between atoms: C_8  and  C_10
REMARK    5  A    between atoms: C_8  and  O_11
REMARK                            x       y       z     vdW  Elec       q    Type
REMARK                         _______ _______ _______ _____ _____    ______ ____
ROOT
ATOM      1  C   UNL     1       9.858   1.373  21.922  0.00  0.00    +0.000 C 
ATOM      2  C   UNL     1       9.692   0.063  22.637  0.00  0.00    +0.000 C 
ATOM      3  C   UNL     1       9.803  -0.046  23.969  0.00  0.00    +0.000 C 
ATOM      4  C   UNL     1       9.657  -1.336  24.723  0.00  0.00    +0.000 C 
ATOM      5  C   UNL     1       9.650  -2.607  23.837  0.00  0.00    +0.000 C 
ATOM      6  C   UNL     1       8.835  -2.327  22.558  0.00  0.00    +0.000 C 
ATOM      7  C   UNL     1       9.381  -1.130  21.773  0.00  0.00    +0.000 C 
ENDROOT
BRANCH   5   8
ATOM      8  C   UNL     1       9.153  -3.863  24.625  0.00  0.00    +0.000 C 
ATOM      9  C   UNL     1       8.666  -3.518  26.040  0.00  0.00    +0.000 C 
ATOM     10  C   UNL     1       8.010  -4.577  23.889  0.00  0.00    +0.000 C 
BRANCH   8  11
ATOM     11  O   UNL     1      10.213  -4.815  24.750  0.00  0.00    +0.000 OA
ATOM     12  H   UNL     1      10.389  -4.955  25.695  0.00  0.00    +0.000 HD
ENDBRANCH   8  11
ENDBRANCH   5   8
TORSDOF 2
ENDMDL
MODEL 2
REMARK VINA RESULT:      -4.8      2.010      3.298
REMARK  Name = 
REMARK  5 active torsions:
REMARK  status: ('A' for Active; 'I' for Inactive)
REMARK    1  A    between atoms: C_1  and  C_2
REMARK    2  A    between atoms: C_5  and  C_8
REMARK    3  A    between atoms: C_8  and  C_9
REMARK    4  A    between atoms: C_8  and  C_10
REMARK    5  A    between atoms: C_8  and  O_11
REMARK                            x       y       z     vdW  Elec       q    Type
REMARK                         _______ _______ _______ _____ _____    ______ ____
ROOT
ATOM      1  C   UNL     1       9.861   4.162  23.820  0.00  0.00    +0.000 C 
ATOM      2  C   UNL     1       9.729   2.706  23.479  0.00  0.00    +0.000 C 
ATOM      3  C   UNL     1       9.932   2.238  22.239  0.00  0.00    +0.000 C 
ATOM      4  C   UNL     1       9.800   0.793  21.853  0.00  0.00    +0.000 C 
ATOM      5  C   UNL     1       9.127  -0.105  22.921  0.00  0.00    +0.000 C 
ATOM      6  C   UNL     1       9.629   0.310  24.318  0.00  0.00    +0.000 C 
ATOM      7  C   UNL     1       9.362   1.789  24.615  0.00  0.00    +0.000 C 
ENDROOT
BRANCH   5   8
ATOM      8  C   UNL     1       9.330  -1.624  22.616  0.00  0.00    +0.000 C 
ATOM      9  C   UNL     1       9.993  -2.377  23.779  0.00  0.00    +0.000 C 
ATOM     10  C   UNL     1       8.000  -2.320  22.295  0.00  0.00    +0.000 C 
BRANCH   8  11
ATOM     11  O   UNL     1      10.162  -1.787  21.463  0.00  0.00    +0.000 OA
ATOM     12  H   UNL     1      10.972  -1.265  21.594  0.00  0.00    +0.000 HD
ENDBRANCH   8  11
ENDBRANCH   5   8
TORSDOF 2
ENDMDL
MODEL 3
REMARK VINA RESULT:      -4.8      2.698      5.240
REMARK  Name = 
REMARK  5 active torsions:
REMARK  status: ('A' for Active; 'I' for Inactive)
REMARK    1  A    between atoms: C_1  and  C_2
REMARK    2  A    between atoms: C_5  and  C_8
REMARK    3  A    between atoms: C_8  and  C_9
REMARK    4  A    between atoms: C_8  and  C_10
REMARK    5  A    between atoms: C_8  and  O_11
REMARK                            x       y       z     vdW  Elec       q    Type
REMARK                         _______ _______ _______ _____ _____    ______ ____
ROOT
ATOM      1  C   UNL     1       9.464  -3.449  24.440  0.00  0.00    +0.000 C 
ATOM      2  C   UNL     1       9.589  -2.017  24.004  0.00  0.00    +0.000 C 
ATOM      3  C   UNL     1       9.894  -1.675  22.743  0.00  0.00    +0.000 C 
ATOM      4  C   UNL     1      10.040  -0.259  22.267  0.00  0.00    +0.000 C 
ATOM      5  C   UNL     1      10.100   0.801  23.395  0.00  0.00    +0.000 C 
ATOM      6  C   UNL     1       9.088   0.424  24.496  0.00  0.00    +0.000 C 
ATOM      7  C   UNL     1       9.342  -0.977  25.063  0.00  0.00    +0.000 C 
ENDROOT
BRANCH   5   8
ATOM      8  C   UNL     1       9.902   2.250  22.843  0.00  0.00    +0.000 C 
ATOM      9  C   UNL     1       8.508   2.815  23.153  0.00  0.00    +0.000 C 
ATOM     10  C   UNL     1      10.946   3.221  23.413  0.00  0.00    +0.000 C 
BRANCH   8  11
ATOM     11  O   UNL     1      10.069   2.261  21.422  0.00  0.00    +0.000 OA
ATOM     12  H   UNL     1       9.242   1.956  21.014  0.00  0.00    +0.000 HD
ENDBRANCH   8  11
ENDBRANCH   5   8
TORSDOF 2
ENDMDL
MODEL 4
REMARK VINA RESULT:      -4.7      2.129      3.259
REMARK  Name = 
REMARK  5 active torsions:
REMARK  status: ('A' for Active; 'I' for Inactive)
REMARK    1  A    between atoms: C_1  and  C_2
REMARK    2  A    between atoms: C_5  and  C_8
REMARK    3  A    between atoms: C_8  and  C_9
REMARK    4  A    between atoms: C_8  and  C_10
REMARK    5  A    between atoms: C_8  and  O_11
REMARK                            x       y       z     vdW  Elec       q    Type
REMARK                         _______ _______ _______ _____ _____    ______ ____
ROOT
ATOM      1  C   UNL     1       9.848   4.428  23.939  0.00  0.00    +0.000 C 
ATOM      2  C   UNL     1       9.766   2.953  23.670  0.00  0.00    +0.000 C 
ATOM      3  C   UNL     1       9.218   2.094  24.542  0.00  0.00    +0.000 C 
ATOM      4  C   UNL     1       9.127   0.612  24.318  0.00  0.00    +0.000 C 
ATOM      5  C   UNL     1       9.968   0.082  23.131  0.00  0.00    +0.000 C 
ATOM      6  C   UNL     1       9.870   1.079  21.958  0.00  0.00    +0.000 C 
ATOM      7  C   UNL     1      10.328   2.487  22.354  0.00  0.00    +0.000 C 
ENDROOT
BRANCH   5   8
ATOM      8  C   UNL     1       9.567  -1.376  22.738  0.00  0.00    +0.000 C 
ATOM      9  C   UNL     1      10.005  -2.412  23.784  0.00  0.00    +0.000 C 
ATOM     10  C   UNL     1       8.050  -1.512  22.539  0.00  0.00    +0.000 C 
BRANCH   8  11
ATOM     11  O   UNL     1      10.173  -1.734  21.492  0.00  0.00    +0.000 OA
ATOM     12  H   UNL     1      10.691  -0.975  21.174  0.00  0.00    +0.000 HD
ENDBRANCH   8  11
ENDBRANCH   5   8
TORSDOF 2
ENDMDL
MODEL 5
REMARK VINA RESULT:      -4.7      3.727      6.126
REMARK  Name = 
REMARK  5 active torsions:
REMARK  status: ('A' for Active; 'I' for Inactive)
REMARK    1  A    between atoms: C_1  and  C_2
REMARK    2  A    between atoms: C_5  and  C_8
REMARK    3  A    between atoms: C_8  and  C_9
REMARK    4  A    between atoms: C_8  and  C_10
REMARK    5  A    between atoms: C_8  and  O_11
REMARK                            x       y       z     vdW  Elec       q    Type
REMARK                         _______ _______ _______ _____ _____    ______ ____
ROOT
ATOM      1  C   UNL     1      10.373  -1.663  22.600  0.00  0.00    +0.000 C 
ATOM      2  C   UNL     1      10.143  -0.198  22.833  0.00  0.00    +0.000 C 
ATOM      3  C   UNL     1       9.701   0.622  21.868  0.00  0.00    +0.000 C 
ATOM      4  C   UNL     1       9.469   2.093  22.054  0.00  0.00    +0.000 C 
ATOM      5  C   UNL     1      10.049   2.680  23.365  0.00  0.00    +0.000 C 
ATOM      6  C   UNL     1       9.814   1.678  24.514  0.00  0.00    +0.000 C 
ATOM      7  C   UNL     1      10.430   0.306  24.222  0.00  0.00    +0.000 C 
ENDROOT
BRANCH   5   8
ATOM      8  C   UNL     1       9.485   4.107  23.664  0.00  0.00    +0.000 C 
ATOM      9  C   UNL     1       8.693   4.166  24.978  0.00  0.00    +0.000 C 
ATOM     10  C   UNL     1      10.605   5.155  23.735  0.00  0.00    +0.000 C 
BRANCH   8  11
ATOM     11  O   UNL     1       8.609   4.519  22.610  0.00  0.00    +0.000 OA
ATOM     12  H   UNL     1       7.775   4.029  22.697  0.00  0.00    +0.000 HD
ENDBRANCH   8  11
ENDBRANCH   5   8
TORSDOF 2
ENDMDL
MODEL 6
REMARK VINA RESULT:      -4.4      2.420      4.868
REMARK  Name = 
REMARK  5 active torsions:
REMARK  status: ('A' for Active; 'I' for Inactive)
REMARK    1  A    between atoms: C_1  and  C_2
REMARK    2  A    between atoms: C_5  and  C_8
REMARK    3  A    between atoms: C_8  and  C_9
REMARK    4  A    between atoms: C_8  and  C_10
REMARK    5  A    between atoms: C_8  and  O_11
REMARK                            x       y       z     vdW  Elec       q    Type
REMARK                         _______ _______ _______ _____ _____    ______ ____
ROOT
ATOM      1  C   UNL     1       4.403  -5.686  23.098  0.00  0.00    +0.000 C 
ATOM      2  C   UNL     1       5.527  -4.697  22.980  0.00  0.00    +0.000 C 
ATOM      3  C   UNL     1       5.315  -3.397  22.731  0.00  0.00    +0.000 C 
ATOM      4  C   UNL     1       6.408  -2.377  22.593  0.00  0.00    +0.000 C 
ATOM      5  C   UNL     1       7.835  -2.968  22.470  0.00  0.00    +0.000 C 
ATOM      6  C   UNL     1       7.970  -4.166  23.433  0.00  0.00    +0.000 C 
ATOM      7  C   UNL     1       6.916  -5.246  23.167  0.00  0.00    +0.000 C 
ENDROOT
BRANCH   5   8
ATOM      8  C   UNL     1       8.936  -1.879  22.679  0.00  0.00    +0.000 C 
ATOM      9  C   UNL     1       8.347  -0.493  22.977  0.00  0.00    +0.000 C 
ATOM     10  C   UNL     1       9.887  -2.249  23.827  0.00  0.00    +0.000 C 
BRANCH   8  11
ATOM     11  O   UNL     1       9.744  -1.765  21.504  0.00  0.00    +0.000 OA
ATOM     12  H   UNL     1       9.915  -2.659  21.163  0.00  0.00    +0.000 HD
ENDBRANCH   8  11
ENDBRANCH   5   8
TORSDOF 2
ENDMDL
MODEL 7
REMARK VINA RESULT:      -4.2      2.674      5.188
REMARK  Name = 
REMARK  5 active torsions:
REMARK  status: ('A' for Active; 'I' for Inactive)
REMARK    1  A    between atoms: C_1  and  C_2
REMARK    2  A    between atoms: C_5  and  C_8
REMARK    3  A    between atoms: C_8  and  C_9
REMARK    4  A    between atoms: C_8  and  C_10
REMARK    5  A    between atoms: C_8  and  O_11
REMARK                            x       y       z     vdW  Elec       q    Type
REMARK                         _______ _______ _______ _____ _____    ______ ____
ROOT
ATOM      1  C   UNL     1       3.324  -5.381  23.356  0.00  0.00    +0.000 C 
ATOM      2  C   UNL     1       4.761  -5.183  23.746  0.00  0.00    +0.000 C 
ATOM      3  C   UNL     1       5.618  -4.480  22.991  0.00  0.00    +0.000 C 
ATOM      4  C   UNL     1       7.063  -4.266  23.336  0.00  0.00    +0.000 C 
ATOM      5  C   UNL     1       7.593  -5.156  24.489  0.00  0.00    +0.000 C 
ATOM      6  C   UNL     1       6.512  -5.259  25.584  0.00  0.00    +0.000 C 
ATOM      7  C   UNL     1       5.189  -5.812  25.044  0.00  0.00    +0.000 C 
ENDROOT
BRANCH   5   8
ATOM      8  C   UNL     1       8.972  -4.653  25.026  0.00  0.00    +0.000 C 
ATOM      9  C   UNL     1       9.410  -3.330  24.381  0.00  0.00    +0.000 C 
ATOM     10  C   UNL     1       8.949  -4.456  26.549  0.00  0.00    +0.000 C 
BRANCH   8  11
ATOM     11  O   UNL     1       9.987  -5.624  24.758  0.00  0.00    +0.000 OA
ATOM     12  H   UNL     1      10.358  -5.922  25.605  0.00  0.00    +0.000 HD
ENDBRANCH   8  11
ENDBRANCH   5   8
TORSDOF 2
ENDMDL
MODEL 8
REMARK VINA RESULT:      -4.2      1.631      2.388
REMARK  Name = 
REMARK  5 active torsions:
REMARK  status: ('A' for Active; 'I' for Inactive)
REMARK    1  A    between atoms: C_1  and  C_2
REMARK    2  A    between atoms: C_5  and  C_8
REMARK    3  A    between atoms: C_8  and  C_9
REMARK    4  A    between atoms: C_8  and  C_10
REMARK    5  A    between atoms: C_8  and  O_11
REMARK                            x       y       z     vdW  Elec       q    Type
REMARK                         _______ _______ _______ _____ _____    ______ ____
ROOT
ATOM      1  C   UNL     1       9.756   1.166  24.798  0.00  0.00    +0.000 C 
ATOM      2  C   UNL     1       9.458  -0.306  24.792  0.00  0.00    +0.000 C 
ATOM      3  C   UNL     1      10.019  -1.148  23.913  0.00  0.00    +0.000 C 
ATOM      4  C   UNL     1       9.741  -2.623  23.864  0.00  0.00    +0.000 C 
ATOM      5  C   UNL     1       8.532  -3.083  24.718  0.00  0.00    +0.000 C 
ATOM      6  C   UNL     1       8.532  -2.309  26.052  0.00  0.00    +0.000 C 
ATOM      7  C   UNL     1       8.495  -0.791  25.842  0.00  0.00    +0.000 C 
ENDROOT
BRANCH   5   8
ATOM      8  C   UNL     1       8.508  -4.635  24.903  0.00  0.00    +0.000 C 
ATOM      9  C   UNL     1       9.761  -5.164  25.616  0.00  0.00    +0.000 C 
ATOM     10  C   UNL     1       7.278  -5.090  25.701  0.00  0.00    +0.000 C 
BRANCH   8  11
ATOM     11  O   UNL     1       8.427  -5.280  23.629  0.00  0.00    +0.000 OA
ATOM     12  H   UNL     1       7.956  -4.691  23.016  0.00  0.00    +0.000 HD
ENDBRANCH   8  11
ENDBRANCH   5   8
TORSDOF 2
ENDMDL
MODEL 9
REMARK VINA RESULT:      -4.2      1.799      2.723
REMARK  Name = 
REMARK  5 active torsions:
REMARK  status: ('A' for Active; 'I' for Inactive)
REMARK    1  A    between atoms: C_1  and  C_2
REMARK    2  A    between atoms: C_5  and  C_8
REMARK    3  A    between atoms: C_8  and  C_9
REMARK    4  A    between atoms: C_8  and  C_10
REMARK    5  A    between atoms: C_8  and  O_11
REMARK                            x       y       z     vdW  Elec       q    Type
REMARK                         _______ _______ _______ _____ _____    ______ ____
ROOT
ATOM      1  C   UNL     1       9.643  -1.389  22.073  0.00  0.00    +0.000 C 
ATOM      2  C   UNL     1       9.039  -2.314  23.090  0.00  0.00    +0.000 C 
ATOM      3  C   UNL     1       9.772  -2.908  24.044  0.00  0.00    +0.000 C 
ATOM      4  C   UNL     1       9.212  -3.847  25.072  0.00  0.00    +0.000 C 
ATOM      5  C   UNL     1       7.765  -4.326  24.794  0.00  0.00    +0.000 C 
ATOM      6  C   UNL     1       6.937  -3.143  24.251  0.00  0.00    +0.000 C 
ATOM      7  C   UNL     1       7.554  -2.535  22.987  0.00  0.00    +0.000 C 
ENDROOT
BRANCH   5   8
ATOM      8  C   UNL     1       7.125  -5.005  26.048  0.00  0.00    +0.000 C 
ATOM      9  C   UNL     1       6.673  -3.987  27.105  0.00  0.00    +0.000 C 
ATOM     10  C   UNL     1       5.913  -5.867  25.668  0.00  0.00    +0.000 C 
BRANCH   8  11
ATOM     11  O   UNL     1       8.070  -5.883  26.667  0.00  0.00    +0.000 OA
ATOM     12  H   UNL     1       7.723  -6.789  26.618  0.00  0.00    +0.000 HD
ENDBRANCH   8  11
ENDBRANCH   5   8
TORSDOF 2
ENDMDL
