MODEL 1
REMARK VINA RESULT:      -5.4      0.000      0.000
REMARK  Name = 
REMARK  7 active torsions:
REMARK  status: ('A' for Active; 'I' for Inactive)
REMARK    1  A    between atoms: C_1  and  C_2
REMARK    2  A    between atoms: C_5  and  C_8
REMARK    3  A    between atoms: C_8  and  C_10
REMARK    4  A    between atoms: C_10  and  C_11
REMARK    5  A    between atoms: C_11  and  C_12
REMARK    6  A    between atoms: C_13  and  C_14
REMARK    7  A    between atoms: C_13  and  C_15
REMARK                            x       y       z     vdW  Elec       q    Type
REMARK                         _______ _______ _______ _____ _____    ______ ____
ROOT
ATOM      1  C   UNL     1       9.457  -1.651  23.237  0.00  0.00    +0.000 C 
ATOM      2  C   UNL     1       9.960  -2.686  23.940  0.00  0.00    +0.000 C 
ENDROOT
BRANCH   1   7
ATOM      3  C   UNL     1       9.859   4.219  23.712  0.00  0.00    +0.000 C 
ATOM      4  C   UNL     1       9.779   2.721  23.654  0.00  0.00    +0.000 C 
ATOM      5  C   UNL     1       9.277   2.002  24.668  0.00  0.00    +0.000 C 
ATOM      6  C   UNL     1       9.141   0.508  24.645  0.00  0.00    +0.000 C 
ATOM      7  C   UNL     1       9.897  -0.200  23.490  0.00  0.00    +0.000 C 
ATOM      8  C   UNL     1       9.796   0.627  22.197  0.00  0.00    +0.000 C 
ATOM      9  C   UNL     1      10.275   2.071  22.387  0.00  0.00    +0.000 C 
ENDBRANCH   1   7
BRANCH   1  10
ATOM     10  C   UNL     1       8.405  -1.843  22.137  0.00  0.00    +0.000 C 
BRANCH  10  11
ATOM     11  C   UNL     1       7.075  -2.438  22.635  0.00  0.00    +0.000 C 
BRANCH  11  12
ATOM     12  C   UNL     1       6.456  -3.528  21.803  0.00  0.00    +0.000 C 
ATOM     13  C   UNL     1       6.691  -4.840  22.028  0.00  0.00    +0.000 C 
ATOM     14  C   UNL     1       7.588  -5.360  23.123  0.00  0.00    +0.000 C 
ATOM     15  C   UNL     1       6.061  -5.916  21.188  0.00  0.00    +0.000 C 
ENDBRANCH  11  12
ENDBRANCH  10  11
ENDBRANCH   1  10
TORSDOF 4
ENDMDL
MODEL 2
REMARK VINA RESULT:      -5.4      1.984      3.161
REMARK  Name = 
REMARK  7 active torsions:
REMARK  status: ('A' for Active; 'I' for Inactive)
REMARK    1  A    between atoms: C_1  and  C_2
REMARK    2  A    between atoms: C_5  and  C_8
REMARK    3  A    between atoms: C_8  and  C_10
REMARK    4  A    between atoms: C_10  and  C_11
REMARK    5  A    between atoms: C_11  and  C_12
REMARK    6  A    between atoms: C_13  and  C_14
REMARK    7  A    between atoms: C_13  and  C_15
REMARK                            x       y       z     vdW  Elec       q    Type
REMARK                         _______ _______ _______ _____ _____    ______ ____
ROOT
ATOM      1  C   UNL     1       7.819  -1.120  23.031  0.00  0.00    +0.000 C 
ATOM      2  C   UNL     1       6.537  -1.390  23.350  0.00  0.00    +0.000 C 
ENDROOT
BRANCH   1   7
ATOM      3  C   UNL     1      11.126   3.758  23.374  0.00  0.00    +0.000 C 
ATOM      4  C   UNL     1      10.267   2.537  23.226  0.00  0.00    +0.000 C 
ATOM      5  C   UNL     1      10.241   1.825  22.090  0.00  0.00    +0.000 C 
ATOM      6  C   UNL     1       9.428   0.578  21.903  0.00  0.00    +0.000 C 
ATOM      7  C   UNL     1       8.371   0.315  23.008  0.00  0.00    +0.000 C 
ATOM      8  C   UNL     1       8.931   0.699  24.388  0.00  0.00    +0.000 C 
ATOM      9  C   UNL     1       9.448   2.143  24.429  0.00  0.00    +0.000 C 
ENDBRANCH   1   7
BRANCH   1  10
ATOM     10  C   UNL     1       8.822  -2.222  22.662  0.00  0.00    +0.000 C 
BRANCH  10  11
ATOM     11  C   UNL     1       9.742  -2.648  23.820  0.00  0.00    +0.000 C 
BRANCH  11  12
ATOM     12  C   UNL     1       9.298  -3.817  24.656  0.00  0.00    +0.000 C 
ATOM     13  C   UNL     1       8.678  -3.667  25.848  0.00  0.00    +0.000 C 
ATOM     14  C   UNL     1       8.365  -2.330  26.473  0.00  0.00    +0.000 C 
ATOM     15  C   UNL     1       8.238  -4.847  26.669  0.00  0.00    +0.000 C 
ENDBRANCH  11  12
ENDBRANCH  10  11
ENDBRANCH   1  10
TORSDOF 4
ENDMDL
MODEL 3
REMARK VINA RESULT:      -5.4      1.488      6.074
REMARK  Name = 
REMARK  7 active torsions:
REMARK  status: ('A' for Active; 'I' for Inactive)
REMARK    1  A    between atoms: C_1  and  C_2
REMARK    2  A    between atoms: C_5  and  C_8
REMARK    3  A    between atoms: C_8  and  C_10
REMARK    4  A    between atoms: C_10  and  C_11
REMARK    5  A    between atoms: C_11  and  C_12
REMARK    6  A    between atoms: C_13  and  C_14
REMARK    7  A    between atoms: C_13  and  C_15
REMARK                            x       y       z     vdW  Elec       q    Type
REMARK                         _______ _______ _______ _____ _____    ______ ____
ROOT
ATOM      1  C   UNL     1       9.759  -0.543  23.644  0.00  0.00    +0.000 C 
ATOM      2  C   UNL     1      10.222   0.057  24.760  0.00  0.00    +0.000 C 
ENDROOT
BRANCH   1   7
ATOM      3  C   UNL     1       6.746  -5.563  22.896  0.00  0.00    +0.000 C 
ATOM      4  C   UNL     1       7.508  -4.296  23.151  0.00  0.00    +0.000 C 
ATOM      5  C   UNL     1       8.478  -4.230  24.075  0.00  0.00    +0.000 C 
ATOM      6  C   UNL     1       9.293  -2.999  24.343  0.00  0.00    +0.000 C 
ATOM      7  C   UNL     1       8.747  -1.699  23.696  0.00  0.00    +0.000 C 
ATOM      8  C   UNL     1       8.191  -1.992  22.292  0.00  0.00    +0.000 C 
ATOM      9  C   UNL     1       7.137  -3.106  22.301  0.00  0.00    +0.000 C 
ENDBRANCH   1   7
BRANCH   1  10
ATOM     10  C   UNL     1      10.210  -0.120  22.239  0.00  0.00    +0.000 C 
BRANCH  10  11
ATOM     11  C   UNL     1       9.963   1.366  21.920  0.00  0.00    +0.000 C 
BRANCH  11  12
ATOM     12  C   UNL     1       8.541   1.788  21.674  0.00  0.00    +0.000 C 
ATOM     13  C   UNL     1       7.907   2.699  22.446  0.00  0.00    +0.000 C 
ATOM     14  C   UNL     1       8.540   3.389  23.629  0.00  0.00    +0.000 C 
ATOM     15  C   UNL     1       6.485   3.112  22.185  0.00  0.00    +0.000 C 
ENDBRANCH  11  12
ENDBRANCH  10  11
ENDBRANCH   1  10
TORSDOF 4
ENDMDL
MODEL 4
REMARK VINA RESULT:      -5.4      2.505      5.694
REMARK  Name = 
REMARK  7 active torsions:
REMARK  status: ('A' for Active; 'I' for Inactive)
REMARK    1  A    between atoms: C_1  and  C_2
REMARK    2  A    between atoms: C_5  and  C_8
REMARK    3  A    between atoms: C_8  and  C_10
REMARK    4  A    between atoms: C_10  and  C_11
REMARK    5  A    between atoms: C_11  and  C_12
REMARK    6  A    between atoms: C_13  and  C_14
REMARK    7  A    between atoms: C_13  and  C_15
REMARK                            x       y       z     vdW  Elec       q    Type
REMARK                         _______ _______ _______ _____ _____    ______ ____
ROOT
ATOM      1  C   UNL     1      10.090  -0.504  23.922  0.00  0.00    +0.000 C 
ATOM      2  C   UNL     1      10.574   0.447  24.747  0.00  0.00    +0.000 C 
ENDROOT
BRANCH   1   7
ATOM      3  C   UNL     1       7.577  -5.122  26.607  0.00  0.00    +0.000 C 
ATOM      4  C   UNL     1       8.163  -3.912  25.940  0.00  0.00    +0.000 C 
ATOM      5  C   UNL     1       8.098  -2.696  26.502  0.00  0.00    +0.000 C 
ATOM      6  C   UNL     1       8.699  -1.463  25.895  0.00  0.00    +0.000 C 
ATOM      7  C   UNL     1       9.146  -1.613  24.416  0.00  0.00    +0.000 C 
ATOM      8  C   UNL     1       9.772  -2.998  24.183  0.00  0.00    +0.000 C 
ATOM      9  C   UNL     1       8.843  -4.140  24.614  0.00  0.00    +0.000 C 
ENDBRANCH   1   7
BRANCH   1  10
ATOM     10  C   UNL     1      10.450  -0.556  22.431  0.00  0.00    +0.000 C 
BRANCH  10  11
ATOM     11  C   UNL     1       9.320  -0.089  21.496  0.00  0.00    +0.000 C 
BRANCH  11  12
ATOM     12  C   UNL     1       8.957   1.370  21.532  0.00  0.00    +0.000 C 
ATOM     13  C   UNL     1       7.843   1.829  22.146  0.00  0.00    +0.000 C 
ATOM     14  C   UNL     1       6.846   0.946  22.854  0.00  0.00    +0.000 C 
ATOM     15  C   UNL     1       7.497   3.292  22.175  0.00  0.00    +0.000 C 
ENDBRANCH  11  12
ENDBRANCH  10  11
ENDBRANCH   1  10
TORSDOF 4
ENDMDL
MODEL 5
REMARK VINA RESULT:      -5.3      1.512      2.710
REMARK  Name = 
REMARK  7 active torsions:
REMARK  status: ('A' for Active; 'I' for Inactive)
REMARK    1  A    between atoms: C_1  and  C_2
REMARK    2  A    between atoms: C_5  and  C_8
REMARK    3  A    between atoms: C_8  and  C_10
REMARK    4  A    between atoms: C_10  and  C_11
REMARK    5  A    between atoms: C_11  and  C_12
REMARK    6  A    between atoms: C_13  and  C_14
REMARK    7  A    between atoms: C_13  and  C_15
REMARK                            x       y       z     vdW  Elec       q    Type
REMARK                         _______ _______ _______ _____ _____    ______ ____
ROOT
ATOM      1  C   UNL     1       8.997  -3.700  24.885  0.00  0.00    +0.000 C 
ATOM      2  C   UNL     1       9.738  -4.772  25.234  0.00  0.00    +0.000 C 
ENDROOT
BRANCH   1   7
ATOM      3  C   UNL     1       9.919   1.273  21.841  0.00  0.00    +0.000 C 
ATOM      4  C   UNL     1       9.736   0.024  22.653  0.00  0.00    +0.000 C 
ATOM      5  C   UNL     1       9.831   0.032  23.990  0.00  0.00    +0.000 C 
ATOM      6  C   UNL     1       9.622  -1.180  24.850  0.00  0.00    +0.000 C 
ATOM      7  C   UNL     1       9.584  -2.528  24.082  0.00  0.00    +0.000 C 
ATOM      8  C   UNL     1       8.839  -2.363  22.746  0.00  0.00    +0.000 C 
ATOM      9  C   UNL     1       9.423  -1.236  21.885  0.00  0.00    +0.000 C 
ENDBRANCH   1   7
BRANCH   1  10
ATOM     10  C   UNL     1       7.517  -3.567  25.267  0.00  0.00    +0.000 C 
BRANCH  10  11
ATOM     11  C   UNL     1       6.668  -4.809  24.938  0.00  0.00    +0.000 C 
BRANCH  11  12
ATOM     12  C   UNL     1       6.806  -5.388  23.556  0.00  0.00    +0.000 C 
ATOM     13  C   UNL     1       6.149  -4.885  22.487  0.00  0.00    +0.000 C 
ATOM     14  C   UNL     1       5.214  -3.703  22.550  0.00  0.00    +0.000 C 
ATOM     15  C   UNL     1       6.300  -5.474  21.112  0.00  0.00    +0.000 C 
ENDBRANCH  11  12
ENDBRANCH  10  11
ENDBRANCH   1  10
TORSDOF 4
ENDMDL
MODEL 6
REMARK VINA RESULT:      -5.3      1.979      3.321
REMARK  Name = 
REMARK  7 active torsions:
REMARK  status: ('A' for Active; 'I' for Inactive)
REMARK    1  A    between atoms: C_1  and  C_2
REMARK    2  A    between atoms: C_5  and  C_8
REMARK    3  A    between atoms: C_8  and  C_10
REMARK    4  A    between atoms: C_10  and  C_11
REMARK    5  A    between atoms: C_11  and  C_12
REMARK    6  A    between atoms: C_13  and  C_14
REMARK    7  A    between atoms: C_13  and  C_15
REMARK                            x       y       z     vdW  Elec       q    Type
REMARK                         _______ _______ _______ _____ _____    ______ ____
ROOT
ATOM      1  C   UNL     1       8.889  -3.571  24.038  0.00  0.00    +0.000 C 
ATOM      2  C   UNL     1       9.393  -4.278  25.070  0.00  0.00    +0.000 C 
ENDROOT
BRANCH   1   7
ATOM      3  C   UNL     1      10.156   1.860  22.102  0.00  0.00    +0.000 C 
ATOM      4  C   UNL     1       9.883   0.484  22.637  0.00  0.00    +0.000 C 
ATOM      5  C   UNL     1       9.895   0.224  23.952  0.00  0.00    +0.000 C 
ATOM      6  C   UNL     1       9.595  -1.123  24.540  0.00  0.00    +0.000 C 
ATOM      7  C   UNL     1       9.561  -2.290  23.518  0.00  0.00    +0.000 C 
ATOM      8  C   UNL     1       8.906  -1.833  22.203  0.00  0.00    +0.000 C 
ATOM      9  C   UNL     1       9.578  -0.584  21.618  0.00  0.00    +0.000 C 
ENDBRANCH   1   7
BRANCH   1  10
ATOM     10  C   UNL     1       7.606  -3.989  23.308  0.00  0.00    +0.000 C 
BRANCH  10  11
ATOM     11  C   UNL     1       6.311  -3.661  24.074  0.00  0.00    +0.000 C 
BRANCH  11  12
ATOM     12  C   UNL     1       5.884  -2.219  24.115  0.00  0.00    +0.000 C 
ATOM     13  C   UNL     1       6.018  -1.451  25.220  0.00  0.00    +0.000 C 
ATOM     14  C   UNL     1       6.601  -1.941  26.522  0.00  0.00    +0.000 C 
ATOM     15  C   UNL     1       5.589  -0.011  25.243  0.00  0.00    +0.000 C 
ENDBRANCH  11  12
ENDBRANCH  10  11
ENDBRANCH   1  10
TORSDOF 4
ENDMDL
MODEL 7
REMARK VINA RESULT:      -5.2      1.076      6.497
REMARK  Name = 
REMARK  7 active torsions:
REMARK  status: ('A' for Active; 'I' for Inactive)
REMARK    1  A    between atoms: C_1  and  C_2
REMARK    2  A    between atoms: C_5  and  C_8
REMARK    3  A    between atoms: C_8  and  C_10
REMARK    4  A    between atoms: C_10  and  C_11
REMARK    5  A    between atoms: C_11  and  C_12
REMARK    6  A    between atoms: C_13  and  C_14
REMARK    7  A    between atoms: C_13  and  C_15
REMARK                            x       y       z     vdW  Elec       q    Type
REMARK                         _______ _______ _______ _____ _____    ______ ____
ROOT
ATOM      1  C   UNL     1       9.522  -1.668  23.729  0.00  0.00    +0.000 C 
ATOM      2  C   UNL     1      10.456  -1.645  22.756  0.00  0.00    +0.000 C 
ENDROOT
BRANCH   1   7
ATOM      3  C   UNL     1       5.485  -5.753  22.365  0.00  0.00    +0.000 C 
ATOM      4  C   UNL     1       6.509  -4.735  22.775  0.00  0.00    +0.000 C 
ATOM      5  C   UNL     1       7.516  -5.042  23.605  0.00  0.00    +0.000 C 
ATOM      6  C   UNL     1       8.585  -4.072  24.016  0.00  0.00    +0.000 C 
ATOM      7  C   UNL     1       8.294  -2.590  23.663  0.00  0.00    +0.000 C 
ATOM      8  C   UNL     1       7.618  -2.489  22.285  0.00  0.00    +0.000 C 
ATOM      9  C   UNL     1       6.355  -3.354  22.188  0.00  0.00    +0.000 C 
ENDBRANCH   1   7
BRANCH   1  10
ATOM     10  C   UNL     1       9.612  -0.772  24.972  0.00  0.00    +0.000 C 
BRANCH  10  11
ATOM     11  C   UNL     1      10.369   0.549  24.741  0.00  0.00    +0.000 C 
BRANCH  11  12
ATOM     12  C   UNL     1       9.542   1.783  24.506  0.00  0.00    +0.000 C 
ATOM     13  C   UNL     1       9.412   2.351  23.286  0.00  0.00    +0.000 C 
ATOM     14  C   UNL     1      10.072   1.825  22.036  0.00  0.00    +0.000 C 
ATOM     15  C   UNL     1       8.578   3.583  23.067  0.00  0.00    +0.000 C 
ENDBRANCH  11  12
ENDBRANCH  10  11
ENDBRANCH   1  10
TORSDOF 4
ENDMDL
MODEL 8
REMARK VINA RESULT:      -5.2      1.339      6.615
REMARK  Name = 
REMARK  7 active torsions:
REMARK  status: ('A' for Active; 'I' for Inactive)
REMARK    1  A    between atoms: C_1  and  C_2
REMARK    2  A    between atoms: C_5  and  C_8
REMARK    3  A    between atoms: C_8  and  C_10
REMARK    4  A    between atoms: C_10  and  C_11
REMARK    5  A    between atoms: C_11  and  C_12
REMARK    6  A    between atoms: C_13  and  C_14
REMARK    7  A    between atoms: C_13  and  C_15
REMARK                            x       y       z     vdW  Elec       q    Type
REMARK                         _______ _______ _______ _____ _____    ______ ____
ROOT
ATOM      1  C   UNL     1       7.654  -1.095  24.545  0.00  0.00    +0.000 C 
ATOM      2  C   UNL     1       6.628  -0.248  24.765  0.00  0.00    +0.000 C 
ENDROOT
BRANCH   1   7
ATOM      3  C   UNL     1       6.244  -5.913  21.439  0.00  0.00    +0.000 C 
ATOM      4  C   UNL     1       6.602  -4.654  22.173  0.00  0.00    +0.000 C 
ATOM      5  C   UNL     1       5.999  -3.486  21.906  0.00  0.00    +0.000 C 
ATOM      6  C   UNL     1       6.293  -2.208  22.634  0.00  0.00    +0.000 C 
ATOM      7  C   UNL     1       7.565  -2.240  23.523  0.00  0.00    +0.000 C 
ATOM      8  C   UNL     1       7.694  -3.602  24.225  0.00  0.00    +0.000 C 
ATOM      9  C   UNL     1       7.663  -4.775  23.238  0.00  0.00    +0.000 C 
ENDBRANCH   1   7
BRANCH   1  10
ATOM     10  C   UNL     1       8.985  -0.985  25.302  0.00  0.00    +0.000 C 
BRANCH  10  11
ATOM     11  C   UNL     1      10.171  -0.541  24.426  0.00  0.00    +0.000 C 
BRANCH  11  12
ATOM     12  C   UNL     1      10.517   0.923  24.430  0.00  0.00    +0.000 C 
ATOM     13  C   UNL     1      10.346   1.716  23.349  0.00  0.00    +0.000 C 
ATOM     14  C   UNL     1       9.797   1.235  22.029  0.00  0.00    +0.000 C 
ATOM     15  C   UNL     1      10.695   3.178  23.372  0.00  0.00    +0.000 C 
ENDBRANCH  11  12
ENDBRANCH  10  11
ENDBRANCH   1  10
TORSDOF 4
ENDMDL
MODEL 9
REMARK VINA RESULT:      -5.0      2.841      4.155
REMARK  Name = 
REMARK  7 active torsions:
REMARK  status: ('A' for Active; 'I' for Inactive)
REMARK    1  A    between atoms: C_1  and  C_2
REMARK    2  A    between atoms: C_5  and  C_8
REMARK    3  A    between atoms: C_8  and  C_10
REMARK    4  A    between atoms: C_10  and  C_11
REMARK    5  A    between atoms: C_11  and  C_12
REMARK    6  A    between atoms: C_13  and  C_14
REMARK    7  A    between atoms: C_13  and  C_15
REMARK                            x       y       z     vdW  Elec       q    Type
REMARK                         _______ _______ _______ _____ _____    ______ ____
ROOT
ATOM      1  C   UNL     1       9.822   0.642  22.350  0.00  0.00    +0.000 C 
ATOM      2  C   UNL     1       9.441  -0.147  21.326  0.00  0.00    +0.000 C 
ENDROOT
BRANCH   1   7
ATOM      3  C   UNL     1       7.794   6.026  23.670  0.00  0.00    +0.000 C 
ATOM      4  C   UNL     1       8.370   4.683  23.330  0.00  0.00    +0.000 C 
ATOM      5  C   UNL     1       9.519   4.251  23.870  0.00  0.00    +0.000 C 
ATOM      6  C   UNL     1      10.118   2.904  23.591  0.00  0.00    +0.000 C 
ATOM      7  C   UNL     1       9.486   2.142  22.397  0.00  0.00    +0.000 C 
ATOM      8  C   UNL     1       7.963   2.354  22.370  0.00  0.00    +0.000 C 
ATOM      9  C   UNL     1       7.579   3.839  22.362  0.00  0.00    +0.000 C 
ENDBRANCH   1   7
BRANCH   1  10
ATOM     10  C   UNL     1      10.623   0.106  23.544  0.00  0.00    +0.000 C 
BRANCH  10  11
ATOM     11  C   UNL     1       9.786  -0.705  24.551  0.00  0.00    +0.000 C 
BRANCH  11  12
ATOM     12  C   UNL     1       8.873   0.067  25.463  0.00  0.00    +0.000 C 
ATOM     13  C   UNL     1       7.531   0.099  25.295  0.00  0.00    +0.000 C 
ATOM     14  C   UNL     1       6.803  -0.623  24.189  0.00  0.00    +0.000 C 
ATOM     15  C   UNL     1       6.633   0.874  26.218  0.00  0.00    +0.000 C 
ENDBRANCH  11  12
ENDBRANCH  10  11
ENDBRANCH   1  10
TORSDOF 4
ENDMDL
