MODEL 1
REMARK VINA RESULT:      -8.4      0.000      0.000
REMARK  Name = 
REMARK  10 active torsions:
REMARK  status: ('A' for Active; 'I' for Inactive)
REMARK    1  A    between atoms: C_1  and  C_2
REMARK    2  A    between atoms: C_2  and  C_4
REMARK    3  A    between atoms: C_7  and  C_31
REMARK    4  A    between atoms: C_13  and  C_30
REMARK    5  A    between atoms: C_16  and  O_29
REMARK    6  A    between atoms: C_17  and  C_27
REMARK    7  A    between atoms: C_17  and  C_28
REMARK    8  A    between atoms: C_21  and  C_26
REMARK    9  A    between atoms: C_22  and  C_25
REMARK   10  A    between atoms: C_31  and  O_32
REMARK                            x       y       z     vdW  Elec       q    Type
REMARK                         _______ _______ _______ _____ _____    ______ ____
ROOT
ATOM      1  C   UNL     1      10.030   2.110  23.839  0.00  0.00    +0.000 C 
ATOM      2  C   UNL     1      10.067   2.023  22.251  0.00  0.00    +0.000 C 
ATOM      3  C   UNL     1       9.923   0.595  21.907  0.00  0.00    +0.000 C 
ATOM      4  C   UNL     1       8.919   0.075  22.916  0.00  0.00    +0.000 C 
ATOM      5  C   UNL     1       9.442   0.535  24.312  0.00  0.00    +0.000 C 
ATOM      6  C   UNL     1       8.336  -0.279  25.313  0.00  0.00    +0.000 C 
ATOM      7  C   UNL     1       8.759  -1.063  26.572  0.00  0.00    +0.000 C 
ATOM      8  C   UNL     1       8.373  -2.584  26.386  0.00  0.00    +0.000 C 
ATOM      9  C   UNL     1       6.860  -2.857  26.203  0.00  0.00    +0.000 C 
ATOM     10  C   UNL     1       6.388  -4.415  26.284  0.00  0.00    +0.000 C 
ATOM     11  C   UNL     1       6.866  -5.130  27.615  0.00  0.00    +0.000 C 
ATOM     12  C   UNL     1       6.127  -6.449  27.946  0.00  0.00    +0.000 C 
ATOM     13  C   UNL     1       4.621  -6.229  28.001  0.00  0.00    +0.000 C 
ATOM     14  C   UNL     1       4.069  -5.814  26.604  0.00  0.00    +0.000 C 
ATOM     15  C   UNL     1       4.777  -4.435  26.342  0.00  0.00    +0.000 C 
ATOM     16  C   UNL     1       4.067  -3.552  25.323  0.00  0.00    +0.000 C 
ATOM     17  C   UNL     1       4.579  -2.088  25.458  0.00  0.00    +0.000 C 
ATOM     18  C   UNL     1       6.104  -1.971  25.047  0.00  0.00    +0.000 C 
ATOM     19  C   UNL     1       6.728  -0.369  25.048  0.00  0.00    +0.000 C 
ATOM     20  C   UNL     1       6.401   0.305  23.690  0.00  0.00    +0.000 C 
ATOM     21  C   UNL     1       7.570   0.868  22.903  0.00  0.00    +0.000 C 
ATOM     22  C   UNL     1       6.057   0.413  26.218  0.00  0.00    +0.000 C 
ATOM     23  C   UNL     1       5.924  -2.507  23.563  0.00  0.00    +0.000 C 
ATOM     24  C   UNL     1       2.523  -5.704  26.722  0.00  0.00    +0.000 C 
ATOM     25  C   UNL     1       4.280  -6.847  25.473  0.00  0.00    +0.000 C 
ATOM     26  C   UNL     1       7.132  -5.198  25.174  0.00  0.00    +0.000 C 
ENDROOT
BRANCH   1  28
ATOM     27  C   UNL     1      10.758   4.723  23.712  0.00  0.00    +0.000 C 
ATOM     28  C   UNL     1       9.731   3.646  23.942  0.00  0.00    +0.000 C 
ATOM     29  C   UNL     1       8.577   4.057  24.510  0.00  0.00    +0.000 C 
ENDBRANCH   1  28
BRANCH  13  30
ATOM     30  O   UNL     1       3.964  -7.345  28.577  0.00  0.00    +0.000 OA
ATOM     31  H   UNL     1       4.658  -7.967  28.855  0.00  0.00    +0.000 HD
ENDBRANCH  13  30
BRANCH   4  32
ATOM     32  C   UNL     1       8.927  -1.450  22.630  0.00  0.00    +0.000 C 
BRANCH  32  33
ATOM     33  O   UNL     1       9.692  -1.820  21.478  0.00  0.00    +0.000 OA
ATOM     34  H   UNL     1       9.415  -1.291  20.723  0.00  0.00    +0.000 HD
ENDBRANCH  32  33
ENDBRANCH   4  32
TORSDOF 4
ENDMDL
MODEL 2
REMARK VINA RESULT:      -7.6      1.581      8.333
REMARK  Name = 
REMARK  10 active torsions:
REMARK  status: ('A' for Active; 'I' for Inactive)
REMARK    1  A    between atoms: C_1  and  C_2
REMARK    2  A    between atoms: C_2  and  C_4
REMARK    3  A    between atoms: C_7  and  C_31
REMARK    4  A    between atoms: C_13  and  C_30
REMARK    5  A    between atoms: C_16  and  O_29
REMARK    6  A    between atoms: C_17  and  C_27
REMARK    7  A    between atoms: C_17  and  C_28
REMARK    8  A    between atoms: C_21  and  C_26
REMARK    9  A    between atoms: C_22  and  C_25
REMARK   10  A    between atoms: C_31  and  O_32
REMARK                            x       y       z     vdW  Elec       q    Type
REMARK                         _______ _______ _______ _____ _____    ______ ____
ROOT
ATOM      1  C   UNL     1       3.302  -6.309  26.645  0.00  0.00    +0.000 C 
ATOM      2  C   UNL     1       4.023  -6.943  27.914  0.00  0.00    +0.000 C 
ATOM      3  C   UNL     1       5.473  -6.767  27.703  0.00  0.00    +0.000 C 
ATOM      4  C   UNL     1       5.587  -5.396  27.068  0.00  0.00    +0.000 C 
ATOM      5  C   UNL     1       4.577  -5.394  25.878  0.00  0.00    +0.000 C 
ATOM      6  C   UNL     1       4.968  -3.896  25.176  0.00  0.00    +0.000 C 
ATOM      7  C   UNL     1       5.155  -3.701  23.658  0.00  0.00    +0.000 C 
ATOM      8  C   UNL     1       6.637  -3.232  23.377  0.00  0.00    +0.000 C 
ATOM      9  C   UNL     1       7.031  -1.885  24.031  0.00  0.00    +0.000 C 
ATOM     10  C   UNL     1       8.444  -1.229  23.550  0.00  0.00    +0.000 C 
ATOM     11  C   UNL     1       8.536  -1.065  21.976  0.00  0.00    +0.000 C 
ATOM     12  C   UNL     1       9.641  -0.099  21.486  0.00  0.00    +0.000 C 
ATOM     13  C   UNL     1       9.489   1.272  22.131  0.00  0.00    +0.000 C 
ATOM     14  C   UNL     1       9.701   1.188  23.672  0.00  0.00    +0.000 C 
ATOM     15  C   UNL     1       8.514   0.269  24.141  0.00  0.00    +0.000 C 
ATOM     16  C   UNL     1       8.153   0.417  25.614  0.00  0.00    +0.000 C 
ATOM     17  C   UNL     1       6.738  -0.181  25.864  0.00  0.00    +0.000 C 
ATOM     18  C   UNL     1       6.725  -1.748  25.638  0.00  0.00    +0.000 C 
ATOM     19  C   UNL     1       5.232  -2.517  26.008  0.00  0.00    +0.000 C 
ATOM     20  C   UNL     1       5.181  -2.824  27.527  0.00  0.00    +0.000 C 
ATOM     21  C   UNL     1       4.931  -4.266  27.928  0.00  0.00    +0.000 C 
ATOM     22  C   UNL     1       4.076  -1.549  25.611  0.00  0.00    +0.000 C 
ATOM     23  C   UNL     1       7.824  -2.089  26.733  0.00  0.00    +0.000 C 
ATOM     24  C   UNL     1       9.625   2.633  24.239  0.00  0.00    +0.000 C 
ATOM     25  C   UNL     1      11.092   0.687  24.126  0.00  0.00    +0.000 C 
ATOM     26  C   UNL     1       9.573  -2.240  23.867  0.00  0.00    +0.000 C 
ENDROOT
BRANCH   1  28
ATOM     27  C   UNL     1       1.077  -4.906  27.320  0.00  0.00    +0.000 C 
ATOM     28  C   UNL     1       1.872  -6.185  27.276  0.00  0.00    +0.000 C 
ATOM     29  C   UNL     1       1.405  -7.185  28.053  0.00  0.00    +0.000 C 
ENDBRANCH   1  28
BRANCH  13  30
ATOM     30  O   UNL     1      10.306   2.233  21.485  0.00  0.00    +0.000 OA
ATOM     31  H   UNL     1      10.288   2.024  20.535  0.00  0.00    +0.000 HD
ENDBRANCH  13  30
BRANCH   4  32
ATOM     32  C   UNL     1       7.095  -5.325  26.710  0.00  0.00    +0.000 C 
BRANCH  32  33
ATOM     33  O   UNL     1       7.943  -6.017  27.633  0.00  0.00    +0.000 OA
ATOM     34  H   UNL     1       8.534  -5.390  28.061  0.00  0.00    +0.000 HD
ENDBRANCH  32  33
ENDBRANCH   4  32
TORSDOF 4
ENDMDL
MODEL 3
REMARK VINA RESULT:      -7.6      1.958      3.086
REMARK  Name = 
REMARK  10 active torsions:
REMARK  status: ('A' for Active; 'I' for Inactive)
REMARK    1  A    between atoms: C_1  and  C_2
REMARK    2  A    between atoms: C_2  and  C_4
REMARK    3  A    between atoms: C_7  and  C_31
REMARK    4  A    between atoms: C_13  and  C_30
REMARK    5  A    between atoms: C_16  and  O_29
REMARK    6  A    between atoms: C_17  and  C_27
REMARK    7  A    between atoms: C_17  and  C_28
REMARK    8  A    between atoms: C_21  and  C_26
REMARK    9  A    between atoms: C_22  and  C_25
REMARK   10  A    between atoms: C_31  and  O_32
REMARK                            x       y       z     vdW  Elec       q    Type
REMARK                         _______ _______ _______ _____ _____    ______ ____
ROOT
ATOM      1  C   UNL     1       9.512   4.608  24.361  0.00  0.00    +0.000 C 
ATOM      2  C   UNL     1      10.753   4.681  23.367  0.00  0.00    +0.000 C 
ATOM      3  C   UNL     1      11.363   3.337  23.362  0.00  0.00    +0.000 C 
ATOM      4  C   UNL     1      10.177   2.396  23.416  0.00  0.00    +0.000 C 
ATOM      5  C   UNL     1       9.295   2.892  24.603  0.00  0.00    +0.000 C 
ATOM      6  C   UNL     1       8.145   1.641  24.645  0.00  0.00    +0.000 C 
ATOM      7  C   UNL     1       7.687   0.963  25.952  0.00  0.00    +0.000 C 
ATOM      8  C   UNL     1       8.066  -0.570  25.897  0.00  0.00    +0.000 C 
ATOM      9  C   UNL     1       7.401  -1.367  24.748  0.00  0.00    +0.000 C 
ATOM     10  C   UNL     1       7.541  -2.990  24.813  0.00  0.00    +0.000 C 
ATOM     11  C   UNL     1       7.040  -3.591  26.191  0.00  0.00    +0.000 C 
ATOM     12  C   UNL     1       6.762  -5.113  26.174  0.00  0.00    +0.000 C 
ATOM     13  C   UNL     1       5.772  -5.473  25.074  0.00  0.00    +0.000 C 
ATOM     14  C   UNL     1       6.371  -5.171  23.668  0.00  0.00    +0.000 C 
ATOM     15  C   UNL     1       6.560  -3.610  23.694  0.00  0.00    +0.000 C 
ATOM     16  C   UNL     1       6.640  -2.967  22.314  0.00  0.00    +0.000 C 
ATOM     17  C   UNL     1       6.390  -1.436  22.441  0.00  0.00    +0.000 C 
ATOM     18  C   UNL     1       7.555  -0.726  23.245  0.00  0.00    +0.000 C 
ATOM     19  C   UNL     1       7.430   0.987  23.332  0.00  0.00    +0.000 C 
ATOM     20  C   UNL     1       8.052   1.608  22.055  0.00  0.00    +0.000 C 
ATOM     21  C   UNL     1       9.155   2.631  22.255  0.00  0.00    +0.000 C 
ATOM     22  C   UNL     1       5.919   1.358  23.437  0.00  0.00    +0.000 C 
ATOM     23  C   UNL     1       8.729  -1.158  22.264  0.00  0.00    +0.000 C 
ATOM     24  C   UNL     1       5.344  -5.652  22.605  0.00  0.00    +0.000 C 
ATOM     25  C   UNL     1       7.659  -5.948  23.312  0.00  0.00    +0.000 C 
ATOM     26  C   UNL     1       9.049  -3.341  24.800  0.00  0.00    +0.000 C 
ENDROOT
BRANCH   1  28
ATOM     27  C   UNL     1       7.869   5.959  22.672  0.00  0.00    +0.000 C 
ATOM     28  C   UNL     1       8.790   5.908  23.864  0.00  0.00    +0.000 C 
ATOM     29  C   UNL     1       9.186   7.107  24.342  0.00  0.00    +0.000 C 
ENDBRANCH   1  28
BRANCH  13  30
ATOM     30  O   UNL     1       5.297  -6.799  25.229  0.00  0.00    +0.000 OA
ATOM     31  H   UNL     1       4.627  -6.777  25.935  0.00  0.00    +0.000 HD
ENDBRANCH  13  30
BRANCH   4  32
ATOM     32  C   UNL     1      10.864   1.013  23.580  0.00  0.00    +0.000 C 
BRANCH  32  33
ATOM     33  O   UNL     1      11.298   0.736  24.916  0.00  0.00    +0.000 OA
ATOM     34  H   UNL     1      12.259   0.705  24.943  0.00  0.00    +0.000 HD
ENDBRANCH  32  33
ENDBRANCH   4  32
TORSDOF 4
ENDMDL
MODEL 4
REMARK VINA RESULT:      -7.0      1.806      3.304
REMARK  Name = 
REMARK  10 active torsions:
REMARK  status: ('A' for Active; 'I' for Inactive)
REMARK    1  A    between atoms: C_1  and  C_2
REMARK    2  A    between atoms: C_2  and  C_4
REMARK    3  A    between atoms: C_7  and  C_31
REMARK    4  A    between atoms: C_13  and  C_30
REMARK    5  A    between atoms: C_16  and  O_29
REMARK    6  A    between atoms: C_17  and  C_27
REMARK    7  A    between atoms: C_17  and  C_28
REMARK    8  A    between atoms: C_21  and  C_26
REMARK    9  A    between atoms: C_22  and  C_25
REMARK   10  A    between atoms: C_31  and  O_32
REMARK                            x       y       z     vdW  Elec       q    Type
REMARK                         _______ _______ _______ _____ _____    ______ ____
ROOT
ATOM      1  C   UNL     1       9.091   1.851  23.363  0.00  0.00    +0.000 C 
ATOM      2  C   UNL     1       8.559   3.027  24.293  0.00  0.00    +0.000 C 
ATOM      3  C   UNL     1       7.165   2.688  24.640  0.00  0.00    +0.000 C 
ATOM      4  C   UNL     1       7.193   1.186  24.840  0.00  0.00    +0.000 C 
ATOM      5  C   UNL     1       7.890   0.601  23.573  0.00  0.00    +0.000 C 
ATOM      6  C   UNL     1       7.665  -1.058  23.864  0.00  0.00    +0.000 C 
ATOM      7  C   UNL     1       7.187  -2.046  22.781  0.00  0.00    +0.000 C 
ATOM      8  C   UNL     1       5.806  -2.671  23.226  0.00  0.00    +0.000 C 
ATOM      9  C   UNL     1       5.849  -3.477  24.547  0.00  0.00    +0.000 C 
ATOM     10  C   UNL     1       4.528  -4.364  24.902  0.00  0.00    +0.000 C 
ATOM     11  C   UNL     1       4.122  -5.350  23.729  0.00  0.00    +0.000 C 
ATOM     12  C   UNL     1       3.155  -6.486  24.141  0.00  0.00    +0.000 C 
ATOM     13  C   UNL     1       3.722  -7.288  25.305  0.00  0.00    +0.000 C 
ATOM     14  C   UNL     1       3.847  -6.402  26.580  0.00  0.00    +0.000 C 
ATOM     15  C   UNL     1       4.897  -5.313  26.151  0.00  0.00    +0.000 C 
ATOM     16  C   UNL     1       5.600  -4.629  27.318  0.00  0.00    +0.000 C 
ATOM     17  C   UNL     1       6.884  -3.915  26.803  0.00  0.00    +0.000 C 
ATOM     18  C   UNL     1       6.528  -2.715  25.833  0.00  0.00    +0.000 C 
ATOM     19  C   UNL     1       7.878  -1.789  25.308  0.00  0.00    +0.000 C 
ATOM     20  C   UNL     1       8.204  -0.714  26.376  0.00  0.00    +0.000 C 
ATOM     21  C   UNL     1       8.240   0.729  25.910  0.00  0.00    +0.000 C 
ATOM     22  C   UNL     1       9.088  -2.755  25.124  0.00  0.00    +0.000 C 
ATOM     23  C   UNL     1       5.656  -1.900  26.882  0.00  0.00    +0.000 C 
ATOM     24  C   UNL     1       4.339  -7.313  27.740  0.00  0.00    +0.000 C 
ATOM     25  C   UNL     1       2.521  -5.812  27.113  0.00  0.00    +0.000 C 
ATOM     26  C   UNL     1       3.317  -3.402  24.992  0.00  0.00    +0.000 C 
ENDROOT
BRANCH   1  28
ATOM     27  C   UNL     1      11.617   1.217  24.134  0.00  0.00    +0.000 C 
ATOM     28  C   UNL     1      10.621   2.162  23.514  0.00  0.00    +0.000 C 
ATOM     29  C   UNL     1      11.059   3.425  23.325  0.00  0.00    +0.000 C 
ENDBRANCH   1  28
BRANCH  13  30
ATOM     30  O   UNL     1       2.993  -8.487  25.500  0.00  0.00    +0.000 OA
ATOM     31  H   UNL     1       3.456  -8.988  26.194  0.00  0.00    +0.000 HD
ENDBRANCH  13  30
BRANCH   4  32
ATOM     32  C   UNL     1       5.689   0.854  25.032  0.00  0.00    +0.000 C 
BRANCH  32  33
ATOM     33  O   UNL     1       4.822   1.547  24.129  0.00  0.00    +0.000 OA
ATOM     34  H   UNL     1       5.249   1.630  23.271  0.00  0.00    +0.000 HD
ENDBRANCH  32  33
ENDBRANCH   4  32
TORSDOF 4
ENDMDL
MODEL 5
REMARK VINA RESULT:      -6.8      2.095      8.298
REMARK  Name = 
REMARK  10 active torsions:
REMARK  status: ('A' for Active; 'I' for Inactive)
REMARK    1  A    between atoms: C_1  and  C_2
REMARK    2  A    between atoms: C_2  and  C_4
REMARK    3  A    between atoms: C_7  and  C_31
REMARK    4  A    between atoms: C_13  and  C_30
REMARK    5  A    between atoms: C_16  and  O_29
REMARK    6  A    between atoms: C_17  and  C_27
REMARK    7  A    between atoms: C_17  and  C_28
REMARK    8  A    between atoms: C_21  and  C_26
REMARK    9  A    between atoms: C_22  and  C_25
REMARK   10  A    between atoms: C_31  and  O_32
REMARK                            x       y       z     vdW  Elec       q    Type
REMARK                         _______ _______ _______ _____ _____    ______ ____
ROOT
ATOM      1  C   UNL     1       3.566  -5.526  25.488  0.00  0.00    +0.000 C 
ATOM      2  C   UNL     1       3.644  -6.443  24.190  0.00  0.00    +0.000 C 
ATOM      3  C   UNL     1       3.957  -5.544  23.062  0.00  0.00    +0.000 C 
ATOM      4  C   UNL     1       4.939  -4.550  23.647  0.00  0.00    +0.000 C 
ATOM      5  C   UNL     1       4.280  -4.023  24.958  0.00  0.00    +0.000 C 
ATOM      6  C   UNL     1       5.395  -2.807  25.369  0.00  0.00    +0.000 C 
ATOM      7  C   UNL     1       4.972  -1.395  25.821  0.00  0.00    +0.000 C 
ATOM      8  C   UNL     1       5.524  -0.335  24.788  0.00  0.00    +0.000 C 
ATOM      9  C   UNL     1       7.066  -0.296  24.653  0.00  0.00    +0.000 C 
ATOM     10  C   UNL     1       7.690   0.956  23.814  0.00  0.00    +0.000 C 
ATOM     11  C   UNL     1       7.200   2.361  24.359  0.00  0.00    +0.000 C 
ATOM     12  C   UNL     1       8.047   3.570  23.893  0.00  0.00    +0.000 C 
ATOM     13  C   UNL     1       9.516   3.372  24.246  0.00  0.00    +0.000 C 
ATOM     14  C   UNL     1      10.113   2.158  23.474  0.00  0.00    +0.000 C 
ATOM     15  C   UNL     1       9.287   0.944  24.034  0.00  0.00    +0.000 C 
ATOM     16  C   UNL     1       9.968  -0.409  23.862  0.00  0.00    +0.000 C 
ATOM     17  C   UNL     1       9.300  -1.450  24.807  0.00  0.00    +0.000 C 
ATOM     18  C   UNL     1       7.802  -1.737  24.382  0.00  0.00    +0.000 C 
ATOM     19  C   UNL     1       7.018  -2.966  25.293  0.00  0.00    +0.000 C 
ATOM     20  C   UNL     1       7.363  -4.350  24.685  0.00  0.00    +0.000 C 
ATOM     21  C   UNL     1       6.197  -5.232  24.280  0.00  0.00    +0.000 C 
ATOM     22  C   UNL     1       7.526  -2.878  26.765  0.00  0.00    +0.000 C 
ATOM     23  C   UNL     1       8.135  -2.246  22.914  0.00  0.00    +0.000 C 
ATOM     24  C   UNL     1      11.629   2.084  23.813  0.00  0.00    +0.000 C 
ATOM     25  C   UNL     1      10.086   2.272  21.932  0.00  0.00    +0.000 C 
ATOM     26  C   UNL     1       7.105   0.908  22.380  0.00  0.00    +0.000 C 
ENDROOT
BRANCH   1  28
ATOM     27  C   UNL     1       2.527  -7.417  27.138  0.00  0.00    +0.000 C 
ATOM     28  C   UNL     1       3.698  -6.676  26.546  0.00  0.00    +0.000 C 
ATOM     29  C   UNL     1       4.880  -6.866  27.170  0.00  0.00    +0.000 C 
ENDBRANCH   1  28
BRANCH  13  30
ATOM     30  O   UNL     1      10.244   4.577  24.086  0.00  0.00    +0.000 OA
ATOM     31  H   UNL     1       9.631   5.305  24.287  0.00  0.00    +0.000 HD
ENDBRANCH  13  30
BRANCH   4  32
ATOM     32  C   UNL     1       5.108  -3.534  22.486  0.00  0.00    +0.000 C 
BRANCH  32  33
ATOM     33  O   UNL     1       5.500  -4.131  21.245  0.00  0.00    +0.000 OA
ATOM     34  H   UNL     1       6.025  -3.505  20.738  0.00  0.00    +0.000 HD
ENDBRANCH  32  33
ENDBRANCH   4  32
TORSDOF 4
ENDMDL
MODEL 6
REMARK VINA RESULT:      -6.6      1.562      2.007
REMARK  Name = 
REMARK  10 active torsions:
REMARK  status: ('A' for Active; 'I' for Inactive)
REMARK    1  A    between atoms: C_1  and  C_2
REMARK    2  A    between atoms: C_2  and  C_4
REMARK    3  A    between atoms: C_7  and  C_31
REMARK    4  A    between atoms: C_13  and  C_30
REMARK    5  A    between atoms: C_16  and  O_29
REMARK    6  A    between atoms: C_17  and  C_27
REMARK    7  A    between atoms: C_17  and  C_28
REMARK    8  A    between atoms: C_21  and  C_26
REMARK    9  A    between atoms: C_22  and  C_25
REMARK   10  A    between atoms: C_31  and  O_32
REMARK                            x       y       z     vdW  Elec       q    Type
REMARK                         _______ _______ _______ _____ _____    ______ ____
ROOT
ATOM      1  C   UNL     1       9.183   3.567  23.844  0.00  0.00    +0.000 C 
ATOM      2  C   UNL     1       8.223   3.937  22.630  0.00  0.00    +0.000 C 
ATOM      3  C   UNL     1       7.687   2.661  22.116  0.00  0.00    +0.000 C 
ATOM      4  C   UNL     1       7.451   1.835  23.364  0.00  0.00    +0.000 C 
ATOM      5  C   UNL     1       8.782   1.899  24.175  0.00  0.00    +0.000 C 
ATOM      6  C   UNL     1       8.418   0.789  25.409  0.00  0.00    +0.000 C 
ATOM      7  C   UNL     1       9.401  -0.302  25.877  0.00  0.00    +0.000 C 
ATOM      8  C   UNL     1       8.761  -1.722  25.609  0.00  0.00    +0.000 C 
ATOM      9  C   UNL     1       7.435  -1.993  26.361  0.00  0.00    +0.000 C 
ATOM     10  C   UNL     1       6.885  -3.528  26.335  0.00  0.00    +0.000 C 
ATOM     11  C   UNL     1       7.967  -4.572  26.838  0.00  0.00    +0.000 C 
ATOM     12  C   UNL     1       7.400  -5.960  27.223  0.00  0.00    +0.000 C 
ATOM     13  C   UNL     1       6.299  -5.827  28.267  0.00  0.00    +0.000 C 
ATOM     14  C   UNL     1       5.076  -5.054  27.689  0.00  0.00    +0.000 C 
ATOM     15  C   UNL     1       5.670  -3.629  27.389  0.00  0.00    +0.000 C 
ATOM     16  C   UNL     1       4.625  -2.522  27.304  0.00  0.00    +0.000 C 
ATOM     17  C   UNL     1       5.324  -1.138  27.440  0.00  0.00    +0.000 C 
ATOM     18  C   UNL     1       6.271  -0.846  26.205  0.00  0.00    +0.000 C 
ATOM     19  C   UNL     1       6.994   0.714  26.206  0.00  0.00    +0.000 C 
ATOM     20  C   UNL     1       6.009   1.732  25.578  0.00  0.00    +0.000 C 
ATOM     21  C   UNL     1       6.516   2.543  24.400  0.00  0.00    +0.000 C 
ATOM     22  C   UNL     1       7.310   1.102  27.683  0.00  0.00    +0.000 C 
ATOM     23  C   UNL     1       5.140  -0.945  25.093  0.00  0.00    +0.000 C 
ATOM     24  C   UNL     1       3.966  -5.046  28.778  0.00  0.00    +0.000 C 
ATOM     25  C   UNL     1       4.390  -5.712  26.470  0.00  0.00    +0.000 C 
ATOM     26  C   UNL     1       6.664  -3.931  24.856  0.00  0.00    +0.000 C 
ENDROOT
BRANCH   1  28
ATOM     27  C   UNL     1       8.548   5.375  25.767  0.00  0.00    +0.000 C 
ATOM     28  C   UNL     1       9.243   4.996  24.485  0.00  0.00    +0.000 C 
ATOM     29  C   UNL     1       9.717   6.028  23.756  0.00  0.00    +0.000 C 
ENDBRANCH   1  28
BRANCH  13  30
ATOM     30  O   UNL     1       5.976  -7.086  28.831  0.00  0.00    +0.000 OA
ATOM     31  H   UNL     1       6.814  -7.486  29.123  0.00  0.00    +0.000 HD
ENDBRANCH  13  30
BRANCH   4  32
ATOM     32  C   UNL     1       7.053   0.456  22.773  0.00  0.00    +0.000 C 
BRANCH  32  33
ATOM     33  O   UNL     1       8.160  -0.299  22.268  0.00  0.00    +0.000 OA
ATOM     34  H   UNL     1       8.417  -0.965  22.912  0.00  0.00    +0.000 HD
ENDBRANCH  32  33
ENDBRANCH   4  32
TORSDOF 4
ENDMDL
MODEL 7
REMARK VINA RESULT:      -6.5      2.213      4.027
REMARK  Name = 
REMARK  10 active torsions:
REMARK  status: ('A' for Active; 'I' for Inactive)
REMARK    1  A    between atoms: C_1  and  C_2
REMARK    2  A    between atoms: C_2  and  C_4
REMARK    3  A    between atoms: C_7  and  C_31
REMARK    4  A    between atoms: C_13  and  C_30
REMARK    5  A    between atoms: C_16  and  O_29
REMARK    6  A    between atoms: C_17  and  C_27
REMARK    7  A    between atoms: C_17  and  C_28
REMARK    8  A    between atoms: C_21  and  C_26
REMARK    9  A    between atoms: C_22  and  C_25
REMARK   10  A    between atoms: C_31  and  O_32
REMARK                            x       y       z     vdW  Elec       q    Type
REMARK                         _______ _______ _______ _____ _____    ______ ____
ROOT
ATOM      1  C   UNL     1      10.104   4.620  23.048  0.00  0.00    +0.000 C 
ATOM      2  C   UNL     1       8.894   5.605  23.360  0.00  0.00    +0.000 C 
ATOM      3  C   UNL     1       7.663   4.894  22.965  0.00  0.00    +0.000 C 
ATOM      4  C   UNL     1       7.919   3.460  23.381  0.00  0.00    +0.000 C 
ATOM      5  C   UNL     1       9.310   3.086  22.784  0.00  0.00    +0.000 C 
ATOM      6  C   UNL     1       9.349   1.431  23.167  0.00  0.00    +0.000 C 
ATOM      7  C   UNL     1       9.790   0.345  22.164  0.00  0.00    +0.000 C 
ATOM      8  C   UNL     1       8.580  -0.637  21.903  0.00  0.00    +0.000 C 
ATOM      9  C   UNL     1       8.071  -1.394  23.155  0.00  0.00    +0.000 C 
ATOM     10  C   UNL     1       7.019  -2.611  22.890  0.00  0.00    +0.000 C 
ATOM     11  C   UNL     1       7.566  -3.676  21.851  0.00  0.00    +0.000 C 
ATOM     12  C   UNL     1       6.823  -5.033  21.860  0.00  0.00    +0.000 C 
ATOM     13  C   UNL     1       6.821  -5.642  23.256  0.00  0.00    +0.000 C 
ATOM     14  C   UNL     1       6.015  -4.751  24.249  0.00  0.00    +0.000 C 
ATOM     15  C   UNL     1       6.844  -3.416  24.276  0.00  0.00    +0.000 C 
ATOM     16  C   UNL     1       6.608  -2.559  25.514  0.00  0.00    +0.000 C 
ATOM     17  C   UNL     1       7.758  -1.519  25.652  0.00  0.00    +0.000 C 
ATOM     18  C   UNL     1       7.732  -0.469  24.467  0.00  0.00    +0.000 C 
ATOM     19  C   UNL     1       8.892   0.793  24.598  0.00  0.00    +0.000 C 
ATOM     20  C   UNL     1       8.318   1.921  25.494  0.00  0.00    +0.000 C 
ATOM     21  C   UNL     1       8.273   3.316  24.898  0.00  0.00    +0.000 C 
ATOM     22  C   UNL     1      10.186   0.200  25.235  0.00  0.00    +0.000 C 
ATOM     23  C   UNL     1       6.267   0.077  24.753  0.00  0.00    +0.000 C 
ATOM     24  C   UNL     1       5.979  -5.486  25.618  0.00  0.00    +0.000 C 
ATOM     25  C   UNL     1       4.522  -4.550  23.899  0.00  0.00    +0.000 C 
ATOM     26  C   UNL     1       5.778  -2.022  22.174  0.00  0.00    +0.000 C 
ENDROOT
BRANCH   1  28
ATOM     27  C   UNL     1      10.850   6.393  24.964  0.00  0.00    +0.000 C 
ATOM     28  C   UNL     1      11.176   5.343  23.934  0.00  0.00    +0.000 C 
ATOM     29  C   UNL     1      12.482   5.233  23.611  0.00  0.00    +0.000 C 
ENDBRANCH   1  28
BRANCH  13  30
ATOM     30  O   UNL     1       6.403  -6.996  23.221  0.00  0.00    +0.000 OA
ATOM     31  H   UNL     1       6.323  -7.289  24.146  0.00  0.00    +0.000 HD
ENDBRANCH  13  30
BRANCH   4  32
ATOM     32  C   UNL     1       6.683   2.724  22.798  0.00  0.00    +0.000 C 
BRANCH  32  33
ATOM     33  O   UNL     1       5.933   3.504  21.860  0.00  0.00    +0.000 OA
ATOM     34  H   UNL     1       5.010   3.232  21.879  0.00  0.00    +0.000 HD
ENDBRANCH  32  33
ENDBRANCH   4  32
TORSDOF 4
ENDMDL
MODEL 8
REMARK VINA RESULT:      -6.5      1.919      3.237
REMARK  Name = 
REMARK  10 active torsions:
REMARK  status: ('A' for Active; 'I' for Inactive)
REMARK    1  A    between atoms: C_1  and  C_2
REMARK    2  A    between atoms: C_2  and  C_4
REMARK    3  A    between atoms: C_7  and  C_31
REMARK    4  A    between atoms: C_13  and  C_30
REMARK    5  A    between atoms: C_16  and  O_29
REMARK    6  A    between atoms: C_17  and  C_27
REMARK    7  A    between atoms: C_17  and  C_28
REMARK    8  A    between atoms: C_21  and  C_26
REMARK    9  A    between atoms: C_22  and  C_25
REMARK   10  A    between atoms: C_31  and  O_32
REMARK                            x       y       z     vdW  Elec       q    Type
REMARK                         _______ _______ _______ _____ _____    ______ ____
ROOT
ATOM      1  C   UNL     1       9.110   1.455  23.811  0.00  0.00    +0.000 C 
ATOM      2  C   UNL     1      10.547   1.111  24.399  0.00  0.00    +0.000 C 
ATOM      3  C   UNL     1      10.319   0.327  25.629  0.00  0.00    +0.000 C 
ATOM      4  C   UNL     1       9.139  -0.559  25.285  0.00  0.00    +0.000 C 
ATOM      5  C   UNL     1       8.049   0.393  24.704  0.00  0.00    +0.000 C 
ATOM      6  C   UNL     1       6.759  -0.705  24.560  0.00  0.00    +0.000 C 
ATOM      7  C   UNL     1       5.321  -0.378  25.010  0.00  0.00    +0.000 C 
ATOM      8  C   UNL     1       4.899  -1.380  26.157  0.00  0.00    +0.000 C 
ATOM      9  C   UNL     1       4.889  -2.873  25.749  0.00  0.00    +0.000 C 
ATOM     10  C   UNL     1       4.202  -3.910  26.804  0.00  0.00    +0.000 C 
ATOM     11  C   UNL     1       2.726  -3.490  27.199  0.00  0.00    +0.000 C 
ATOM     12  C   UNL     1       1.884  -4.611  27.854  0.00  0.00    +0.000 C 
ATOM     13  C   UNL     1       1.840  -5.847  26.964  0.00  0.00    +0.000 C 
ATOM     14  C   UNL     1       3.260  -6.468  26.805  0.00  0.00    +0.000 C 
ATOM     15  C   UNL     1       4.059  -5.335  26.064  0.00  0.00    +0.000 C 
ATOM     16  C   UNL     1       5.298  -5.825  25.325  0.00  0.00    +0.000 C 
ATOM     17  C   UNL     1       5.751  -4.745  24.300  0.00  0.00    +0.000 C 
ATOM     18  C   UNL     1       6.253  -3.432  25.029  0.00  0.00    +0.000 C 
ATOM     19  C   UNL     1       6.889  -2.226  23.982  0.00  0.00    +0.000 C 
ATOM     20  C   UNL     1       8.382  -2.533  23.698  0.00  0.00    +0.000 C 
ATOM     21  C   UNL     1       9.381  -1.436  24.012  0.00  0.00    +0.000 C 
ATOM     22  C   UNL     1       6.068  -2.251  22.657  0.00  0.00    +0.000 C 
ATOM     23  C   UNL     1       7.415  -4.130  25.859  0.00  0.00    +0.000 C 
ATOM     24  C   UNL     1       3.113  -7.771  25.969  0.00  0.00    +0.000 C 
ATOM     25  C   UNL     1       3.927  -6.946  28.116  0.00  0.00    +0.000 C 
ATOM     26  C   UNL     1       4.971  -3.806  28.144  0.00  0.00    +0.000 C 
ENDROOT
BRANCH   1  28
ATOM     27  C   UNL     1       9.068   1.177  21.110  0.00  0.00    +0.000 C 
ATOM     28  C   UNL     1       9.579   1.837  22.365  0.00  0.00    +0.000 C 
ATOM     29  C   UNL     1      10.676   2.608  22.208  0.00  0.00    +0.000 C 
ENDBRANCH   1  28
BRANCH  13  30
ATOM     30  O   UNL     1       0.853  -6.761  27.411  0.00  0.00    +0.000 OA
ATOM     31  H   UNL     1       0.237  -6.259  27.972  0.00  0.00    +0.000 HD
ENDBRANCH  13  30
BRANCH   4  32
ATOM     32  C   UNL     1       8.829  -1.234  26.648  0.00  0.00    +0.000 C 
BRANCH  32  33
ATOM     33  O   UNL     1       9.068  -0.392  27.780  0.00  0.00    +0.000 OA
ATOM     34  H   UNL     1       9.956  -0.026  27.728  0.00  0.00    +0.000 HD
ENDBRANCH  32  33
ENDBRANCH   4  32
TORSDOF 4
ENDMDL
MODEL 9
REMARK VINA RESULT:      -6.5      2.224      8.683
REMARK  Name = 
REMARK  10 active torsions:
REMARK  status: ('A' for Active; 'I' for Inactive)
REMARK    1  A    between atoms: C_1  and  C_2
REMARK    2  A    between atoms: C_2  and  C_4
REMARK    3  A    between atoms: C_7  and  C_31
REMARK    4  A    between atoms: C_13  and  C_30
REMARK    5  A    between atoms: C_16  and  O_29
REMARK    6  A    between atoms: C_17  and  C_27
REMARK    7  A    between atoms: C_17  and  C_28
REMARK    8  A    between atoms: C_21  and  C_26
REMARK    9  A    between atoms: C_22  and  C_25
REMARK   10  A    between atoms: C_31  and  O_32
REMARK                            x       y       z     vdW  Elec       q    Type
REMARK                         _______ _______ _______ _____ _____    ______ ____
ROOT
ATOM      1  C   UNL     1       1.469  -6.547  27.284  0.00  0.00    +0.000 C 
ATOM      2  C   UNL     1       1.079  -7.613  26.169  0.00  0.00    +0.000 C 
ATOM      3  C   UNL     1       1.421  -7.003  24.869  0.00  0.00    +0.000 C 
ATOM      4  C   UNL     1       2.716  -6.265  25.140  0.00  0.00    +0.000 C 
ATOM      5  C   UNL     1       2.454  -5.399  26.410  0.00  0.00    +0.000 C 
ATOM      6  C   UNL     1       3.903  -4.512  26.455  0.00  0.00    +0.000 C 
ATOM      7  C   UNL     1       3.953  -2.991  26.701  0.00  0.00    +0.000 C 
ATOM      8  C   UNL     1       4.580  -2.284  25.434  0.00  0.00    +0.000 C 
ATOM      9  C   UNL     1       6.031  -2.709  25.101  0.00  0.00    +0.000 C 
ATOM     10  C   UNL     1       6.810  -1.815  23.982  0.00  0.00    +0.000 C 
ATOM     11  C   UNL     1       6.810  -0.268  24.327  0.00  0.00    +0.000 C 
ATOM     12  C   UNL     1       7.854   0.571  23.553  0.00  0.00    +0.000 C 
ATOM     13  C   UNL     1       9.256   0.008  23.746  0.00  0.00    +0.000 C 
ATOM     14  C   UNL     1       9.371  -1.419  23.132  0.00  0.00    +0.000 C 
ATOM     15  C   UNL     1       8.361  -2.257  23.997  0.00  0.00    +0.000 C 
ATOM     16  C   UNL     1       8.621  -3.759  23.983  0.00  0.00    +0.000 C 
ATOM     17  C   UNL     1       7.873  -4.426  25.173  0.00  0.00    +0.000 C 
ATOM     18  C   UNL     1       6.303  -4.324  24.998  0.00  0.00    +0.000 C 
ATOM     19  C   UNL     1       5.389  -5.141  26.204  0.00  0.00    +0.000 C 
ATOM     20  C   UNL     1       5.247  -6.634  25.811  0.00  0.00    +0.000 C 
ATOM     21  C   UNL     1       3.838  -7.189  25.720  0.00  0.00    +0.000 C 
ATOM     22  C   UNL     1       6.146  -5.005  27.561  0.00  0.00    +0.000 C 
ATOM     23  C   UNL     1       6.233  -5.100  23.613  0.00  0.00    +0.000 C 
ATOM     24  C   UNL     1      10.848  -1.880  23.284  0.00  0.00    +0.000 C 
ATOM     25  C   UNL     1       9.112  -1.511  21.610  0.00  0.00    +0.000 C 
ATOM     26  C   UNL     1       5.999  -1.884  22.665  0.00  0.00    +0.000 C 
ENDROOT
BRANCH   1  28
ATOM     27  C   UNL     1       2.516  -7.531  29.588  0.00  0.00    +0.000 C 
ATOM     28  C   UNL     1       1.471  -7.533  28.502  0.00  0.00    +0.000 C 
ATOM     29  C   UNL     1       0.662  -8.614  28.478  0.00  0.00    +0.000 C 
ENDBRANCH   1  28
BRANCH  13  30
ATOM     30  O   UNL     1      10.239   0.919  23.285  0.00  0.00    +0.000 OA
ATOM     31  H   UNL     1      11.089   0.628  23.657  0.00  0.00    +0.000 HD
ENDBRANCH  13  30
BRANCH   4  32
ATOM     32  C   UNL     1       2.946  -5.506  23.806  0.00  0.00    +0.000 C 
BRANCH  32  33
ATOM     33  O   UNL     1       3.103  -6.364  22.670  0.00  0.00    +0.000 OA
ATOM     34  H   UNL     1       2.286  -6.379  22.163  0.00  0.00    +0.000 HD
ENDBRANCH  32  33
ENDBRANCH   4  32
TORSDOF 4
ENDMDL
