MODEL 1
REMARK VINA RESULT:      -7.0      0.000      0.000
REMARK  Name = 
REMARK  4 active torsions:
REMARK  status: ('A' for Active; 'I' for Inactive)
REMARK    1  A    between atoms: C_5  and  O_7
REMARK    2  A    between atoms: C_15  and  C_19
REMARK    3  A    between atoms: C_17  and  O_18
REMARK    4  A    between atoms: C_19  and  O_20
REMARK                            x       y       z     vdW  Elec       q    Type
REMARK                         _______ _______ _______ _____ _____    ______ ____
ROOT
ATOM      1  C   UNL     1      10.383   1.633  23.779  0.00  0.00    +0.000 A 
ATOM      2  C   UNL     1       9.924   0.854  24.843  0.00  0.00    +0.000 A 
ATOM      3  C   UNL     1       9.300  -0.377  24.594  0.00  0.00    +0.000 A 
ATOM      4  C   UNL     1       9.136  -0.836  23.291  0.00  0.00    +0.000 A 
ATOM      5  C   UNL     1       9.597  -0.041  22.227  0.00  0.00    +0.000 A 
ATOM      6  C   UNL     1      10.216   1.185  22.471  0.00  0.00    +0.000 A 
ATOM      7  C   UNL     1       8.491  -2.142  23.035  0.00  0.00    +0.000 C 
ATOM      8  O   UNL     1       8.370  -2.491  21.865  0.00  0.00    +0.000 OA
ATOM      9  C   UNL     1       8.008  -2.964  24.175  0.00  0.00    +0.000 A 
ATOM     10  C   UNL     1       8.151  -2.474  25.477  0.00  0.00    +0.000 A 
ATOM     11  C   UNL     1       8.817  -1.181  25.729  0.00  0.00    +0.000 C 
ATOM     12  O   UNL     1       8.971  -0.778  26.878  0.00  0.00    +0.000 OA
ATOM     13  C   UNL     1       7.670  -3.204  26.581  0.00  0.00    +0.000 A 
ATOM     14  C   UNL     1       7.057  -4.449  26.401  0.00  0.00    +0.000 A 
ATOM     15  C   UNL     1       6.941  -4.951  25.099  0.00  0.00    +0.000 A 
ATOM     16  C   UNL     1       7.405  -4.217  24.000  0.00  0.00    +0.000 A 
ENDROOT
BRANCH   5  17
ATOM     17  O   UNL     1       9.474  -0.403  20.914  0.00  0.00    +0.000 OA
ATOM     18  H   UNL     1       9.196  -1.348  20.885  0.00  0.00    +0.000 HD
ENDBRANCH   5  17
BRANCH  16  19
ATOM     19  O   UNL     1       7.257  -4.754  22.754  0.00  0.00    +0.000 OA
ATOM     20  H   UNL     1       7.075  -4.058  22.101  0.00  0.00    +0.000 HD
ENDBRANCH  16  19
BRANCH  14  21
ATOM     21  C   UNL     1       6.563  -5.262  27.570  0.00  0.00    +0.000 C 
BRANCH  21  22
ATOM     22  O   UNL     1       7.540  -6.211  27.976  0.00  0.00    +0.000 OA
ATOM     23  H   UNL     1       7.379  -6.412  28.914  0.00  0.00    +0.000 HD
ENDBRANCH  21  22
ENDBRANCH  14  21
TORSDOF 4
ENDMDL
MODEL 2
REMARK VINA RESULT:      -7.0      2.357      6.794
REMARK  Name = 
REMARK  4 active torsions:
REMARK  status: ('A' for Active; 'I' for Inactive)
REMARK    1  A    between atoms: C_5  and  O_7
REMARK    2  A    between atoms: C_15  and  C_19
REMARK    3  A    between atoms: C_17  and  O_18
REMARK    4  A    between atoms: C_19  and  O_20
REMARK                            x       y       z     vdW  Elec       q    Type
REMARK                         _______ _______ _______ _____ _____    ______ ____
ROOT
ATOM      1  C   UNL     1       2.946  -6.607  23.864  0.00  0.00    +0.000 A 
ATOM      2  C   UNL     1       3.783  -5.702  23.209  0.00  0.00    +0.000 A 
ATOM      3  C   UNL     1       5.013  -5.344  23.779  0.00  0.00    +0.000 A 
ATOM      4  C   UNL     1       5.413  -5.886  24.996  0.00  0.00    +0.000 A 
ATOM      5  C   UNL     1       4.559  -6.791  25.650  0.00  0.00    +0.000 A 
ATOM      6  C   UNL     1       3.335  -7.149  25.087  0.00  0.00    +0.000 A 
ATOM      7  C   UNL     1       6.718  -5.516  25.586  0.00  0.00    +0.000 C 
ATOM      8  O   UNL     1       7.014  -6.023  26.663  0.00  0.00    +0.000 OA
ATOM      9  C   UNL     1       7.603  -4.554  24.878  0.00  0.00    +0.000 A 
ATOM     10  C   UNL     1       7.173  -3.993  23.672  0.00  0.00    +0.000 A 
ATOM     11  C   UNL     1       5.880  -4.384  23.075  0.00  0.00    +0.000 C 
ATOM     12  O   UNL     1       5.529  -3.914  21.997  0.00  0.00    +0.000 OA
ATOM     13  C   UNL     1       7.963  -3.047  22.991  0.00  0.00    +0.000 A 
ATOM     14  C   UNL     1       9.210  -2.663  23.497  0.00  0.00    +0.000 A 
ATOM     15  C   UNL     1       9.652  -3.248  24.690  0.00  0.00    +0.000 A 
ATOM     16  C   UNL     1       8.858  -4.177  25.375  0.00  0.00    +0.000 A 
ENDROOT
BRANCH   5  17
ATOM     17  O   UNL     1       4.861  -7.370  26.853  0.00  0.00    +0.000 OA
ATOM     18  H   UNL     1       4.247  -8.129  26.985  0.00  0.00    +0.000 HD
ENDBRANCH   5  17
BRANCH  16  19
ATOM     19  O   UNL     1       9.338  -4.706  26.537  0.00  0.00    +0.000 OA
ATOM     20  H   UNL     1      10.182  -4.292  26.780  0.00  0.00    +0.000 HD
ENDBRANCH  16  19
BRANCH  14  21
ATOM     21  C   UNL     1      10.087  -1.677  22.770  0.00  0.00    +0.000 C 
BRANCH  21  22
ATOM     22  O   UNL     1       9.822  -1.696  21.373  0.00  0.00    +0.000 OA
ATOM     23  H   UNL     1       8.993  -2.187  21.241  0.00  0.00    +0.000 HD
ENDBRANCH  21  22
ENDBRANCH  14  21
TORSDOF 4
ENDMDL
MODEL 3
REMARK VINA RESULT:      -6.8      1.885      2.012
REMARK  Name = 
REMARK  4 active torsions:
REMARK  status: ('A' for Active; 'I' for Inactive)
REMARK    1  A    between atoms: C_5  and  O_7
REMARK    2  A    between atoms: C_15  and  C_19
REMARK    3  A    between atoms: C_17  and  O_18
REMARK    4  A    between atoms: C_19  and  O_20
REMARK                            x       y       z     vdW  Elec       q    Type
REMARK                         _______ _______ _______ _____ _____    ______ ____
ROOT
ATOM      1  C   UNL     1       7.596   1.215  22.259  0.00  0.00    +0.000 A 
ATOM      2  C   UNL     1       6.954   0.494  23.268  0.00  0.00    +0.000 A 
ATOM      3  C   UNL     1       7.507  -0.707  23.734  0.00  0.00    +0.000 A 
ATOM      4  C   UNL     1       8.698  -1.191  23.201  0.00  0.00    +0.000 A 
ATOM      5  C   UNL     1       9.332  -0.460  22.181  0.00  0.00    +0.000 A 
ATOM      6  C   UNL     1       8.784   0.733  21.715  0.00  0.00    +0.000 A 
ATOM      7  C   UNL     1       9.285  -2.451  23.707  0.00  0.00    +0.000 C 
ATOM      8  O   UNL     1      10.333  -2.830  23.194  0.00  0.00    +0.000 OA
ATOM      9  C   UNL     1       8.595  -3.209  24.783  0.00  0.00    +0.000 A 
ATOM     10  C   UNL     1       7.382  -2.726  25.285  0.00  0.00    +0.000 A 
ATOM     11  C   UNL     1       6.812  -1.455  24.795  0.00  0.00    +0.000 C 
ATOM     12  O   UNL     1       5.767  -1.023  25.269  0.00  0.00    +0.000 OA
ATOM     13  C   UNL     1       6.677  -3.436  26.277  0.00  0.00    +0.000 A 
ATOM     14  C   UNL     1       7.186  -4.630  26.797  0.00  0.00    +0.000 A 
ATOM     15  C   UNL     1       8.414  -5.097  26.314  0.00  0.00    +0.000 A 
ATOM     16  C   UNL     1       9.108  -4.399  25.317  0.00  0.00    +0.000 A 
ENDROOT
BRANCH   5  17
ATOM     17  O   UNL     1      10.500  -0.859  21.590  0.00  0.00    +0.000 OA
ATOM     18  H   UNL     1      11.130  -1.110  22.305  0.00  0.00    +0.000 HD
ENDBRANCH   5  17
BRANCH  16  19
ATOM     19  O   UNL     1      10.296  -4.906  24.878  0.00  0.00    +0.000 OA
ATOM     20  H   UNL     1      10.268  -5.876  24.860  0.00  0.00    +0.000 HD
ENDBRANCH  16  19
BRANCH  14  21
ATOM     21  C   UNL     1       6.464  -5.390  27.881  0.00  0.00    +0.000 C 
BRANCH  21  22
ATOM     22  O   UNL     1       7.268  -6.453  28.376  0.00  0.00    +0.000 OA
ATOM     23  H   UNL     1       8.183  -6.128  28.423  0.00  0.00    +0.000 HD
ENDBRANCH  21  22
ENDBRANCH  14  21
TORSDOF 4
ENDMDL
MODEL 4
REMARK VINA RESULT:      -6.8      2.122      5.834
REMARK  Name = 
REMARK  4 active torsions:
REMARK  status: ('A' for Active; 'I' for Inactive)
REMARK    1  A    between atoms: C_5  and  O_7
REMARK    2  A    between atoms: C_15  and  C_19
REMARK    3  A    between atoms: C_17  and  O_18
REMARK    4  A    between atoms: C_19  and  O_20
REMARK                            x       y       z     vdW  Elec       q    Type
REMARK                         _______ _______ _______ _____ _____    ______ ____
ROOT
ATOM      1  C   UNL     1       6.433  -4.546  27.175  0.00  0.00    +0.000 A 
ATOM      2  C   UNL     1       6.141  -3.374  26.475  0.00  0.00    +0.000 A 
ATOM      3  C   UNL     1       7.055  -2.867  25.541  0.00  0.00    +0.000 A 
ATOM      4  C   UNL     1       8.257  -3.525  25.299  0.00  0.00    +0.000 A 
ATOM      5  C   UNL     1       8.543  -4.701  26.013  0.00  0.00    +0.000 A 
ATOM      6  C   UNL     1       7.638  -5.207  26.944  0.00  0.00    +0.000 A 
ATOM      7  C   UNL     1       9.211  -2.993  24.302  0.00  0.00    +0.000 C 
ATOM      8  O   UNL     1      10.256  -3.614  24.135  0.00  0.00    +0.000 OA
ATOM      9  C   UNL     1       8.888  -1.746  23.560  0.00  0.00    +0.000 A 
ATOM     10  C   UNL     1       7.691  -1.079  23.839  0.00  0.00    +0.000 A 
ATOM     11  C   UNL     1       6.731  -1.626  24.818  0.00  0.00    +0.000 C 
ATOM     12  O   UNL     1       5.666  -1.052  25.027  0.00  0.00    +0.000 OA
ATOM     13  C   UNL     1       7.367   0.127  23.188  0.00  0.00    +0.000 A 
ATOM     14  C   UNL     1       8.228   0.675  22.231  0.00  0.00    +0.000 A 
ATOM     15  C   UNL     1       9.413  -0.010  21.932  0.00  0.00    +0.000 A 
ATOM     16  C   UNL     1       9.742  -1.201  22.591  0.00  0.00    +0.000 A 
ENDROOT
BRANCH   5  17
ATOM     17  O   UNL     1       9.701  -5.412  25.851  0.00  0.00    +0.000 OA
ATOM     18  H   UNL     1      10.411  -4.780  25.592  0.00  0.00    +0.000 HD
ENDBRANCH   5  17
BRANCH  16  19
ATOM     19  O   UNL     1      10.914  -1.820  22.265  0.00  0.00    +0.000 OA
ATOM     20  H   UNL     1      10.742  -2.684  21.858  0.00  0.00    +0.000 HD
ENDBRANCH  16  19
BRANCH  14  21
ATOM     21  C   UNL     1       7.888   1.947  21.499  0.00  0.00    +0.000 C 
BRANCH  21  22
ATOM     22  O   UNL     1       8.860   2.954  21.753  0.00  0.00    +0.000 OA
ATOM     23  H   UNL     1       9.544   2.878  21.066  0.00  0.00    +0.000 HD
ENDBRANCH  21  22
ENDBRANCH  14  21
TORSDOF 4
ENDMDL
MODEL 5
REMARK VINA RESULT:      -6.7      2.438      2.806
REMARK  Name = 
REMARK  4 active torsions:
REMARK  status: ('A' for Active; 'I' for Inactive)
REMARK    1  A    between atoms: C_5  and  O_7
REMARK    2  A    between atoms: C_15  and  C_19
REMARK    3  A    between atoms: C_17  and  O_18
REMARK    4  A    between atoms: C_19  and  O_20
REMARK                            x       y       z     vdW  Elec       q    Type
REMARK                         _______ _______ _______ _____ _____    ______ ____
ROOT
ATOM      1  C   UNL     1       6.310   3.021  22.732  0.00  0.00    +0.000 A 
ATOM      2  C   UNL     1       5.950   1.878  23.449  0.00  0.00    +0.000 A 
ATOM      3  C   UNL     1       6.817   0.777  23.497  0.00  0.00    +0.000 A 
ATOM      4  C   UNL     1       8.042   0.812  22.839  0.00  0.00    +0.000 A 
ATOM      5  C   UNL     1       8.391   1.965  22.115  0.00  0.00    +0.000 A 
ATOM      6  C   UNL     1       7.531   3.061  22.063  0.00  0.00    +0.000 A 
ATOM      7  C   UNL     1       8.959  -0.346  22.906  0.00  0.00    +0.000 C 
ATOM      8  O   UNL     1      10.023  -0.259  22.301  0.00  0.00    +0.000 OA
ATOM      9  C   UNL     1       8.567  -1.557  23.674  0.00  0.00    +0.000 A 
ATOM     10  C   UNL     1       7.318  -1.589  24.303  0.00  0.00    +0.000 A 
ATOM     11  C   UNL     1       6.416  -0.421  24.254  0.00  0.00    +0.000 C 
ATOM     12  O   UNL     1       5.339  -0.446  24.841  0.00  0.00    +0.000 OA
ATOM     13  C   UNL     1       6.892  -2.732  25.007  0.00  0.00    +0.000 A 
ATOM     14  C   UNL     1       7.720  -3.856  25.110  0.00  0.00    +0.000 A 
ATOM     15  C   UNL     1       8.981  -3.811  24.503  0.00  0.00    +0.000 A 
ATOM     16  C   UNL     1       9.398  -2.679  23.791  0.00  0.00    +0.000 A 
ENDROOT
BRANCH   5  17
ATOM     17  O   UNL     1       9.569   2.091  21.429  0.00  0.00    +0.000 OA
ATOM     18  H   UNL     1      10.003   1.206  21.409  0.00  0.00    +0.000 HD
ENDBRANCH   5  17
BRANCH  16  19
ATOM     19  O   UNL     1      10.634  -2.696  23.214  0.00  0.00    +0.000 OA
ATOM     20  H   UNL     1      11.313  -2.933  23.866  0.00  0.00    +0.000 HD
ENDBRANCH  16  19
BRANCH  14  21
ATOM     21  C   UNL     1       7.298  -5.078  25.883  0.00  0.00    +0.000 C 
BRANCH  21  22
ATOM     22  O   UNL     1       8.428  -5.752  26.423  0.00  0.00    +0.000 OA
ATOM     23  H   UNL     1       9.188  -5.550  25.850  0.00  0.00    +0.000 HD
ENDBRANCH  21  22
ENDBRANCH  14  21
TORSDOF 4
ENDMDL
MODEL 6
REMARK VINA RESULT:      -6.6      3.086      5.519
REMARK  Name = 
REMARK  4 active torsions:
REMARK  status: ('A' for Active; 'I' for Inactive)
REMARK    1  A    between atoms: C_5  and  O_7
REMARK    2  A    between atoms: C_15  and  C_19
REMARK    3  A    between atoms: C_17  and  O_18
REMARK    4  A    between atoms: C_19  and  O_20
REMARK                            x       y       z     vdW  Elec       q    Type
REMARK                         _______ _______ _______ _____ _____    ______ ____
ROOT
ATOM      1  C   UNL     1       8.973  -2.753  23.349  0.00  0.00    +0.000 A 
ATOM      2  C   UNL     1       7.752  -3.224  22.865  0.00  0.00    +0.000 A 
ATOM      3  C   UNL     1       7.002  -4.137  23.620  0.00  0.00    +0.000 A 
ATOM      4  C   UNL     1       7.462  -4.578  24.857  0.00  0.00    +0.000 A 
ATOM      5  C   UNL     1       8.696  -4.101  25.332  0.00  0.00    +0.000 A 
ATOM      6  C   UNL     1       9.445  -3.195  24.583  0.00  0.00    +0.000 A 
ATOM      7  C   UNL     1       6.660  -5.530  25.656  0.00  0.00    +0.000 C 
ATOM      8  O   UNL     1       7.119  -5.886  26.736  0.00  0.00    +0.000 OA
ATOM      9  C   UNL     1       5.359  -6.023  25.131  0.00  0.00    +0.000 A 
ATOM     10  C   UNL     1       4.927  -5.596  23.872  0.00  0.00    +0.000 A 
ATOM     11  C   UNL     1       5.719  -4.628  23.089  0.00  0.00    +0.000 C 
ATOM     12  O   UNL     1       5.311  -4.231  22.001  0.00  0.00    +0.000 OA
ATOM     13  C   UNL     1       3.721  -6.072  23.322  0.00  0.00    +0.000 A 
ATOM     14  C   UNL     1       2.917  -6.969  24.035  0.00  0.00    +0.000 A 
ATOM     15  C   UNL     1       3.338  -7.373  25.308  0.00  0.00    +0.000 A 
ATOM     16  C   UNL     1       4.545  -6.911  25.847  0.00  0.00    +0.000 A 
ENDROOT
BRANCH   5  17
ATOM     17  O   UNL     1       9.234  -4.482  26.531  0.00  0.00    +0.000 OA
ATOM     18  H   UNL     1       9.811  -5.265  26.368  0.00  0.00    +0.000 HD
ENDBRANCH   5  17
BRANCH  16  19
ATOM     19  O   UNL     1       4.908  -7.346  27.089  0.00  0.00    +0.000 OA
ATOM     20  H   UNL     1       5.159  -6.598  27.654  0.00  0.00    +0.000 HD
ENDBRANCH  16  19
BRANCH  14  21
ATOM     21  C   UNL     1       1.607  -7.467  23.480  0.00  0.00    +0.000 C 
BRANCH  21  22
ATOM     22  O   UNL     1       1.818  -8.266  22.322  0.00  0.00    +0.000 OA
ATOM     23  H   UNL     1       2.444  -7.789  21.750  0.00  0.00    +0.000 HD
ENDBRANCH  21  22
ENDBRANCH  14  21
TORSDOF 4
ENDMDL
MODEL 7
REMARK VINA RESULT:      -6.3      1.261      5.628
REMARK  Name = 
REMARK  4 active torsions:
REMARK  status: ('A' for Active; 'I' for Inactive)
REMARK    1  A    between atoms: C_5  and  O_7
REMARK    2  A    between atoms: C_15  and  C_19
REMARK    3  A    between atoms: C_17  and  O_18
REMARK    4  A    between atoms: C_19  and  O_20
REMARK                            x       y       z     vdW  Elec       q    Type
REMARK                         _______ _______ _______ _____ _____    ______ ____
ROOT
ATOM      1  C   UNL     1       6.554  -4.369  26.569  0.00  0.00    +0.000 A 
ATOM      2  C   UNL     1       7.171  -3.123  26.692  0.00  0.00    +0.000 A 
ATOM      3  C   UNL     1       7.728  -2.500  25.565  0.00  0.00    +0.000 A 
ATOM      4  C   UNL     1       7.669  -3.112  24.318  0.00  0.00    +0.000 A 
ATOM      5  C   UNL     1       7.051  -4.370  24.206  0.00  0.00    +0.000 A 
ATOM      6  C   UNL     1       6.498  -4.993  25.324  0.00  0.00    +0.000 A 
ATOM      7  C   UNL     1       8.246  -2.444  23.131  0.00  0.00    +0.000 C 
ATOM      8  O   UNL     1       8.168  -3.036  22.058  0.00  0.00    +0.000 OA
ATOM      9  C   UNL     1       8.898  -1.116  23.273  0.00  0.00    +0.000 A 
ATOM     10  C   UNL     1       8.978  -0.529  24.539  0.00  0.00    +0.000 A 
ATOM     11  C   UNL     1       8.380  -1.189  25.718  0.00  0.00    +0.000 C 
ATOM     12  O   UNL     1       8.423  -0.646  26.818  0.00  0.00    +0.000 OA
ATOM     13  C   UNL     1       9.623   0.709  24.723  0.00  0.00    +0.000 A 
ATOM     14  C   UNL     1      10.181   1.390  23.636  0.00  0.00    +0.000 A 
ATOM     15  C   UNL     1      10.075   0.814  22.364  0.00  0.00    +0.000 A 
ATOM     16  C   UNL     1       9.447  -0.425  22.184  0.00  0.00    +0.000 A 
ENDROOT
BRANCH   5  17
ATOM     17  O   UNL     1       6.951  -5.053  23.025  0.00  0.00    +0.000 OA
ATOM     18  H   UNL     1       6.062  -4.868  22.643  0.00  0.00    +0.000 HD
ENDBRANCH   5  17
BRANCH  16  19
ATOM     19  O   UNL     1       9.380  -0.941  20.923  0.00  0.00    +0.000 OA
ATOM     20  H   UNL     1      10.216  -1.376  20.687  0.00  0.00    +0.000 HD
ENDBRANCH  16  19
BRANCH  14  21
ATOM     21  C   UNL     1      10.850   2.730  23.803  0.00  0.00    +0.000 C 
BRANCH  21  22
ATOM     22  O   UNL     1      10.858   3.450  22.577  0.00  0.00    +0.000 OA
ATOM     23  H   UNL     1      11.728   3.313  22.165  0.00  0.00    +0.000 HD
ENDBRANCH  21  22
ENDBRANCH  14  21
TORSDOF 4
ENDMDL
MODEL 8
REMARK VINA RESULT:      -6.3      2.564      3.042
REMARK  Name = 
REMARK  4 active torsions:
REMARK  status: ('A' for Active; 'I' for Inactive)
REMARK    1  A    between atoms: C_5  and  O_7
REMARK    2  A    between atoms: C_15  and  C_19
REMARK    3  A    between atoms: C_17  and  O_18
REMARK    4  A    between atoms: C_19  and  O_20
REMARK                            x       y       z     vdW  Elec       q    Type
REMARK                         _______ _______ _______ _____ _____    ______ ____
ROOT
ATOM      1  C   UNL     1       8.821   1.889  21.397  0.00  0.00    +0.000 A 
ATOM      2  C   UNL     1       9.355   0.671  21.823  0.00  0.00    +0.000 A 
ATOM      3  C   UNL     1       8.632  -0.141  22.708  0.00  0.00    +0.000 A 
ATOM      4  C   UNL     1       7.379   0.253  23.167  0.00  0.00    +0.000 A 
ATOM      5  C   UNL     1       6.854   1.484  22.736  0.00  0.00    +0.000 A 
ATOM      6  C   UNL     1       7.570   2.295  21.858  0.00  0.00    +0.000 A 
ATOM      7  C   UNL     1       6.615  -0.615  24.089  0.00  0.00    +0.000 C 
ATOM      8  O   UNL     1       5.518  -0.211  24.463  0.00  0.00    +0.000 OA
ATOM      9  C   UNL     1       7.191  -1.911  24.534  0.00  0.00    +0.000 A 
ATOM     10  C   UNL     1       8.465  -2.277  24.090  0.00  0.00    +0.000 A 
ATOM     11  C   UNL     1       9.215  -1.419  23.150  0.00  0.00    +0.000 C 
ATOM     12  O   UNL     1      10.316  -1.769  22.738  0.00  0.00    +0.000 OA
ATOM     13  C   UNL     1       9.063  -3.477  24.520  0.00  0.00    +0.000 A 
ATOM     14  C   UNL     1       8.385  -4.341  25.387  0.00  0.00    +0.000 A 
ATOM     15  C   UNL     1       7.098  -3.986  25.808  0.00  0.00    +0.000 A 
ATOM     16  C   UNL     1       6.510  -2.785  25.392  0.00  0.00    +0.000 A 
ENDROOT
BRANCH   5  17
ATOM     17  O   UNL     1       5.636   1.960  23.138  0.00  0.00    +0.000 OA
ATOM     18  H   UNL     1       5.001   1.832  22.395  0.00  0.00    +0.000 HD
ENDBRANCH   5  17
BRANCH  16  19
ATOM     19  O   UNL     1       5.256  -2.488  25.842  0.00  0.00    +0.000 OA
ATOM     20  H   UNL     1       4.683  -3.270  25.797  0.00  0.00    +0.000 HD
ENDBRANCH  16  19
BRANCH  14  21
ATOM     21  C   UNL     1       8.993  -5.645  25.836  0.00  0.00    +0.000 C 
BRANCH  21  22
ATOM     22  O   UNL     1      10.384  -5.684  25.542  0.00  0.00    +0.000 OA
ATOM     23  H   UNL     1      10.585  -6.574  25.206  0.00  0.00    +0.000 HD
ENDBRANCH  21  22
ENDBRANCH  14  21
TORSDOF 4
ENDMDL
MODEL 9
REMARK VINA RESULT:      -6.2      2.034      3.511
REMARK  Name = 
REMARK  4 active torsions:
REMARK  status: ('A' for Active; 'I' for Inactive)
REMARK    1  A    between atoms: C_5  and  O_7
REMARK    2  A    between atoms: C_15  and  C_19
REMARK    3  A    between atoms: C_17  and  O_18
REMARK    4  A    between atoms: C_19  and  O_20
REMARK                            x       y       z     vdW  Elec       q    Type
REMARK                         _______ _______ _______ _____ _____    ______ ____
ROOT
ATOM      1  C   UNL     1      10.225   3.128  23.106  0.00  0.00    +0.000 A 
ATOM      2  C   UNL     1      10.406   1.750  22.972  0.00  0.00    +0.000 A 
ATOM      3  C   UNL     1       9.702   0.865  23.801  0.00  0.00    +0.000 A 
ATOM      4  C   UNL     1       8.817   1.346  24.759  0.00  0.00    +0.000 A 
ATOM      5  C   UNL     1       8.647   2.736  24.890  0.00  0.00    +0.000 A 
ATOM      6  C   UNL     1       9.346   3.619  24.069  0.00  0.00    +0.000 A 
ATOM      7  C   UNL     1       8.066   0.407  25.621  0.00  0.00    +0.000 C 
ATOM      8  O   UNL     1       7.303   0.891  26.451  0.00  0.00    +0.000 OA
ATOM      9  C   UNL     1       8.265  -1.058  25.467  0.00  0.00    +0.000 A 
ATOM     10  C   UNL     1       9.183  -1.524  24.521  0.00  0.00    +0.000 A 
ATOM     11  C   UNL     1       9.913  -0.584  23.647  0.00  0.00    +0.000 C 
ATOM     12  O   UNL     1      10.688  -1.007  22.794  0.00  0.00    +0.000 OA
ATOM     13  C   UNL     1       9.430  -2.903  24.372  0.00  0.00    +0.000 A 
ATOM     14  C   UNL     1       8.745  -3.839  25.155  0.00  0.00    +0.000 A 
ATOM     15  C   UNL     1       7.805  -3.371  26.081  0.00  0.00    +0.000 A 
ATOM     16  C   UNL     1       7.571  -1.999  26.240  0.00  0.00    +0.000 A 
ENDROOT
BRANCH   5  17
ATOM     17  O   UNL     1       7.805   3.304  25.808  0.00  0.00    +0.000 OA
ATOM     18  H   UNL     1       7.985   2.886  26.682  0.00  0.00    +0.000 HD
ENDBRANCH   5  17
BRANCH  16  19
ATOM     19  O   UNL     1       6.649  -1.601  27.164  0.00  0.00    +0.000 OA
ATOM     20  H   UNL     1       6.316  -2.363  27.664  0.00  0.00    +0.000 HD
ENDBRANCH  16  19
BRANCH  14  21
ATOM     21  C   UNL     1       8.970  -5.320  24.992  0.00  0.00    +0.000 C 
BRANCH  21  22
ATOM     22  O   UNL     1      10.289  -5.679  25.385  0.00  0.00    +0.000 OA
ATOM     23  H   UNL     1      10.692  -6.162  24.643  0.00  0.00    +0.000 HD
ENDBRANCH  21  22
ENDBRANCH  14  21
TORSDOF 4
ENDMDL
