MODEL 1
REMARK VINA RESULT:      -8.5      0.000      0.000
REMARK  Name = 
REMARK  10 active torsions:
REMARK  status: ('A' for Active; 'I' for Inactive)
REMARK    1  A    between atoms: C_1  and  C_2
REMARK    2  A    between atoms: C_5  and  C_31
REMARK    3  A    between atoms: C_8  and  C_30
REMARK    4  A    between atoms: C_13  and  C_26
REMARK    5  A    between atoms: C_17  and  C_25
REMARK    6  A    between atoms: C_20  and  O_24
REMARK    7  A    between atoms: C_21  and  C_22
REMARK    8  A    between atoms: C_21  and  C_23
REMARK    9  A    between atoms: C_28  and  C_29
REMARK   10  A    between atoms: C_31  and  O_33
REMARK                            x       y       z     vdW  Elec       q    Type
REMARK                         _______ _______ _______ _____ _____    ______ ____
ROOT
ATOM      1  C   UNL     1       9.061   3.653  23.636  0.00  0.00    +0.000 C 
ATOM      2  C   UNL     1       8.592   2.353  22.981  0.00  0.00    +0.000 C 
ATOM      3  C   UNL     1       9.717   1.733  22.147  0.00  0.00    +0.000 C 
ATOM      4  C   UNL     1       9.212   0.502  21.378  0.00  0.00    +0.000 C 
ATOM      5  C   UNL     1       8.847  -0.612  22.394  0.00  0.00    +0.000 C 
ATOM      6  C   UNL     1       8.359  -1.905  21.728  0.00  0.00    +0.000 C 
ATOM      7  C   UNL     1       8.004  -2.928  22.839  0.00  0.00    +0.000 C 
ATOM      8  C   UNL     1       6.697  -2.529  23.541  0.00  0.00    +0.000 C 
ATOM      9  C   UNL     1       6.621  -0.990  23.899  0.00  0.00    +0.000 C 
ATOM     10  C   UNL     1       5.747  -0.558  24.862  0.00  0.00    +0.000 C 
ATOM     11  C   UNL     1       4.844  -1.444  25.745  0.00  0.00    +0.000 C 
ATOM     12  C   UNL     1       4.920  -2.883  25.224  0.00  0.00    +0.000 C 
ATOM     13  C   UNL     1       6.440  -3.238  24.979  0.00  0.00    +0.000 C 
ATOM     14  C   UNL     1       6.684  -4.735  25.190  0.00  0.00    +0.000 C 
ATOM     15  C   UNL     1       5.973  -5.274  26.462  0.00  0.00    +0.000 C 
ATOM     16  C   UNL     1       4.467  -4.893  26.729  0.00  0.00    +0.000 C 
ATOM     17  C   UNL     1       3.911  -4.045  25.566  0.00  0.00    +0.000 C 
ATOM     18  C   UNL     1       3.706  -4.996  24.324  0.00  0.00    +0.000 C 
ATOM     19  C   UNL     1       2.955  -6.296  24.589  0.00  0.00    +0.000 C 
ATOM     20  C   UNL     1       3.505  -7.064  25.794  0.00  0.00    +0.000 C 
ATOM     21  C   UNL     1       3.603  -6.182  27.070  0.00  0.00    +0.000 C 
ATOM     22  C   UNL     1       4.263  -6.978  28.226  0.00  0.00    +0.000 C 
ATOM     23  C   UNL     1       2.185  -5.847  27.605  0.00  0.00    +0.000 C 
ATOM     24  C   UNL     1       2.534  -3.373  25.801  0.00  0.00    +0.000 C 
ATOM     25  C   UNL     1       7.450  -2.623  26.053  0.00  0.00    +0.000 C 
ATOM     26  C   UNL     1       7.621  -0.016  23.217  0.00  0.00    +0.000 C 
ATOM     27  C   UNL     1       7.959   1.333  23.970  0.00  0.00    +0.000 C 
ATOM     28  C   UNL     1       8.731   1.203  25.293  0.00  0.00    +0.000 C 
ATOM     29  C   UNL     1       5.624  -2.941  22.440  0.00  0.00    +0.000 C 
ENDROOT
BRANCH  20  30
ATOM     30  O   UNL     1       2.715  -8.230  26.014  0.00  0.00    +0.000 OA
ATOM     31  H   UNL     1       2.478  -8.266  26.957  0.00  0.00    +0.000 HD
ENDBRANCH  20  30
BRANCH   5  32
ATOM     32  C   UNL     1      10.242  -1.024  22.922  0.00  0.00    +0.000 C 
ATOM     33  O   UNL     1      10.666  -0.781  24.036  0.00  0.00    +0.000 OA
BRANCH  32  34
ATOM     34  O   UNL     1      11.067  -1.585  21.997  0.00  0.00    +0.000 OA
ATOM     35  H   UNL     1      10.643  -2.265  21.456  0.00  0.00    +0.000 HD
ENDBRANCH  32  34
ENDBRANCH   5  32
TORSDOF 3
ENDMDL
MODEL 2
REMARK VINA RESULT:      -8.5      2.718      8.406
REMARK  Name = 
REMARK  10 active torsions:
REMARK  status: ('A' for Active; 'I' for Inactive)
REMARK    1  A    between atoms: C_1  and  C_2
REMARK    2  A    between atoms: C_5  and  C_31
REMARK    3  A    between atoms: C_8  and  C_30
REMARK    4  A    between atoms: C_13  and  C_26
REMARK    5  A    between atoms: C_17  and  C_25
REMARK    6  A    between atoms: C_20  and  O_24
REMARK    7  A    between atoms: C_21  and  C_22
REMARK    8  A    between atoms: C_21  and  C_23
REMARK    9  A    between atoms: C_28  and  C_29
REMARK   10  A    between atoms: C_31  and  O_33
REMARK                            x       y       z     vdW  Elec       q    Type
REMARK                         _______ _______ _______ _____ _____    ______ ____
ROOT
ATOM      1  C   UNL     1       5.634  -5.713  22.291  0.00  0.00    +0.000 C 
ATOM      2  C   UNL     1       5.881  -4.764  23.464  0.00  0.00    +0.000 C 
ATOM      3  C   UNL     1       6.700  -5.459  24.556  0.00  0.00    +0.000 C 
ATOM      4  C   UNL     1       6.835  -4.558  25.794  0.00  0.00    +0.000 C 
ATOM      5  C   UNL     1       7.690  -3.317  25.423  0.00  0.00    +0.000 C 
ATOM      6  C   UNL     1       7.916  -2.361  26.602  0.00  0.00    +0.000 C 
ATOM      7  C   UNL     1       8.757  -1.157  26.105  0.00  0.00    +0.000 C 
ATOM      8  C   UNL     1       7.904  -0.231  25.224  0.00  0.00    +0.000 C 
ATOM      9  C   UNL     1       7.024  -1.007  24.164  0.00  0.00    +0.000 C 
ATOM     10  C   UNL     1       6.542  -0.346  23.064  0.00  0.00    +0.000 C 
ATOM     11  C   UNL     1       6.840   1.115  22.669  0.00  0.00    +0.000 C 
ATOM     12  C   UNL     1       7.594   1.784  23.825  0.00  0.00    +0.000 C 
ATOM     13  C   UNL     1       8.741   0.805  24.296  0.00  0.00    +0.000 C 
ATOM     14  C   UNL     1       9.931   1.597  24.848  0.00  0.00    +0.000 C 
ATOM     15  C   UNL     1      10.291   2.816  23.956  0.00  0.00    +0.000 C 
ATOM     16  C   UNL     1       9.145   3.776  23.454  0.00  0.00    +0.000 C 
ATOM     17  C   UNL     1       7.783   3.335  24.029  0.00  0.00    +0.000 C 
ATOM     18  C   UNL     1       7.758   3.707  25.562  0.00  0.00    +0.000 C 
ATOM     19  C   UNL     1       8.176   5.131  25.915  0.00  0.00    +0.000 C 
ATOM     20  C   UNL     1       9.501   5.538  25.264  0.00  0.00    +0.000 C 
ATOM     21  C   UNL     1       9.510   5.297  23.728  0.00  0.00    +0.000 C 
ATOM     22  C   UNL     1      10.907   5.626  23.140  0.00  0.00    +0.000 C 
ATOM     23  C   UNL     1       8.558   6.296  23.019  0.00  0.00    +0.000 C 
ATOM     24  C   UNL     1       6.528   4.012  23.422  0.00  0.00    +0.000 C 
ATOM     25  C   UNL     1       9.452  -0.006  23.117  0.00  0.00    +0.000 C 
ATOM     26  C   UNL     1       6.815  -2.536  24.347  0.00  0.00    +0.000 C 
ATOM     27  C   UNL     1       6.486  -3.390  23.057  0.00  0.00    +0.000 C 
ATOM     28  C   UNL     1       7.604  -3.501  22.007  0.00  0.00    +0.000 C 
ATOM     29  C   UNL     1       7.013   0.496  26.325  0.00  0.00    +0.000 C 
ENDROOT
BRANCH  20  30
ATOM     30  O   UNL     1       9.791   6.895  25.590  0.00  0.00    +0.000 OA
ATOM     31  H   UNL     1       8.952   7.351  25.778  0.00  0.00    +0.000 HD
ENDBRANCH  20  30
BRANCH   5  32
ATOM     32  C   UNL     1       9.092  -3.946  25.240  0.00  0.00    +0.000 C 
ATOM     33  O   UNL     1       9.802  -3.795  24.264  0.00  0.00    +0.000 OA
BRANCH  32  34
ATOM     34  O   UNL     1       9.463  -4.824  26.211  0.00  0.00    +0.000 OA
ATOM     35  H   UNL     1       9.863  -4.406  26.984  0.00  0.00    +0.000 HD
ENDBRANCH  32  34
ENDBRANCH   5  32
TORSDOF 3
ENDMDL
MODEL 3
REMARK VINA RESULT:      -8.2      1.650      8.094
REMARK  Name = 
REMARK  10 active torsions:
REMARK  status: ('A' for Active; 'I' for Inactive)
REMARK    1  A    between atoms: C_1  and  C_2
REMARK    2  A    between atoms: C_5  and  C_31
REMARK    3  A    between atoms: C_8  and  C_30
REMARK    4  A    between atoms: C_13  and  C_26
REMARK    5  A    between atoms: C_17  and  C_25
REMARK    6  A    between atoms: C_20  and  O_24
REMARK    7  A    between atoms: C_21  and  C_22
REMARK    8  A    between atoms: C_21  and  C_23
REMARK    9  A    between atoms: C_28  and  C_29
REMARK   10  A    between atoms: C_31  and  O_33
REMARK                            x       y       z     vdW  Elec       q    Type
REMARK                         _______ _______ _______ _____ _____    ______ ____
ROOT
ATOM      1  C   UNL     1       3.622  -7.052  28.429  0.00  0.00    +0.000 C 
ATOM      2  C   UNL     1       4.318  -6.769  27.097  0.00  0.00    +0.000 C 
ATOM      3  C   UNL     1       3.424  -7.183  25.924  0.00  0.00    +0.000 C 
ATOM      4  C   UNL     1       4.170  -7.029  24.589  0.00  0.00    +0.000 C 
ATOM      5  C   UNL     1       4.441  -5.523  24.334  0.00  0.00    +0.000 C 
ATOM      6  C   UNL     1       5.157  -5.252  23.004  0.00  0.00    +0.000 C 
ATOM      7  C   UNL     1       5.392  -3.723  22.876  0.00  0.00    +0.000 C 
ATOM      8  C   UNL     1       6.508  -3.268  23.829  0.00  0.00    +0.000 C 
ATOM      9  C   UNL     1       6.379  -3.878  25.283  0.00  0.00    +0.000 C 
ATOM     10  C   UNL     1       7.020  -3.273  26.333  0.00  0.00    +0.000 C 
ATOM     11  C   UNL     1       7.822  -1.957  26.283  0.00  0.00    +0.000 C 
ATOM     12  C   UNL     1       7.972  -1.537  24.816  0.00  0.00    +0.000 C 
ATOM     13  C   UNL     1       6.560  -1.672  24.119  0.00  0.00    +0.000 C 
ATOM     14  C   UNL     1       6.417  -0.646  22.991  0.00  0.00    +0.000 C 
ATOM     15  C   UNL     1       6.928   0.761  23.406  0.00  0.00    +0.000 C 
ATOM     16  C   UNL     1       8.320   0.897  24.134  0.00  0.00    +0.000 C 
ATOM     17  C   UNL     1       9.001  -0.483  24.257  0.00  0.00    +0.000 C 
ATOM     18  C   UNL     1       9.514  -0.902  22.825  0.00  0.00    +0.000 C 
ATOM     19  C   UNL     1      10.318   0.147  22.065  0.00  0.00    +0.000 C 
ATOM     20  C   UNL     1       9.628   1.514  22.031  0.00  0.00    +0.000 C 
ATOM     21  C   UNL     1       9.220   2.012  23.446  0.00  0.00    +0.000 C 
ATOM     22  C   UNL     1       8.433   3.344  23.342  0.00  0.00    +0.000 C 
ATOM     23  C   UNL     1      10.480   2.381  24.272  0.00  0.00    +0.000 C 
ATOM     24  C   UNL     1      10.246  -0.556  25.177  0.00  0.00    +0.000 C 
ATOM     25  C   UNL     1       5.320  -1.267  25.041  0.00  0.00    +0.000 C 
ATOM     26  C   UNL     1       5.437  -5.094  25.500  0.00  0.00    +0.000 C 
ATOM     27  C   UNL     1       4.848  -5.314  26.951  0.00  0.00    +0.000 C 
ATOM     28  C   UNL     1       3.862  -4.250  27.458  0.00  0.00    +0.000 C 
ATOM     29  C   UNL     1       7.796  -3.808  23.065  0.00  0.00    +0.000 C 
ENDROOT
BRANCH  20  30
ATOM     30  O   UNL     1      10.465   2.451  21.360  0.00  0.00    +0.000 OA
ATOM     31  H   UNL     1      10.385   3.311  21.810  0.00  0.00    +0.000 HD
ENDBRANCH  20  30
BRANCH   5  32
ATOM     32  C   UNL     1       3.016  -4.991  24.052  0.00  0.00    +0.000 C 
ATOM     33  O   UNL     1       2.422  -4.186  24.744  0.00  0.00    +0.000 OA
BRANCH  32  34
ATOM     34  O   UNL     1       2.370  -5.590  23.015  0.00  0.00    +0.000 OA
ATOM     35  H   UNL     1       2.660  -5.284  22.145  0.00  0.00    +0.000 HD
ENDBRANCH  32  34
ENDBRANCH   5  32
TORSDOF 3
ENDMDL
MODEL 4
REMARK VINA RESULT:      -8.0      2.399      4.765
REMARK  Name = 
REMARK  10 active torsions:
REMARK  status: ('A' for Active; 'I' for Inactive)
REMARK    1  A    between atoms: C_1  and  C_2
REMARK    2  A    between atoms: C_5  and  C_31
REMARK    3  A    between atoms: C_8  and  C_30
REMARK    4  A    between atoms: C_13  and  C_26
REMARK    5  A    between atoms: C_17  and  C_25
REMARK    6  A    between atoms: C_20  and  O_24
REMARK    7  A    between atoms: C_21  and  C_22
REMARK    8  A    between atoms: C_21  and  C_23
REMARK    9  A    between atoms: C_28  and  C_29
REMARK   10  A    between atoms: C_31  and  O_33
REMARK                            x       y       z     vdW  Elec       q    Type
REMARK                         _______ _______ _______ _____ _____    ______ ____
ROOT
ATOM      1  C   UNL     1      12.481   5.233  23.066  0.00  0.00    +0.000 C 
ATOM      2  C   UNL     1      11.251   4.836  23.883  0.00  0.00    +0.000 C 
ATOM      3  C   UNL     1      10.101   5.817  23.637  0.00  0.00    +0.000 C 
ATOM      4  C   UNL     1       8.910   5.503  24.556  0.00  0.00    +0.000 C 
ATOM      5  C   UNL     1       8.314   4.127  24.158  0.00  0.00    +0.000 C 
ATOM      6  C   UNL     1       7.092   3.729  24.996  0.00  0.00    +0.000 C 
ATOM      7  C   UNL     1       6.605   2.334  24.523  0.00  0.00    +0.000 C 
ATOM      8  C   UNL     1       7.571   1.237  24.996  0.00  0.00    +0.000 C 
ATOM      9  C   UNL     1       9.094   1.603  24.776  0.00  0.00    +0.000 C 
ATOM     10  C   UNL     1      10.036   0.608  24.754  0.00  0.00    +0.000 C 
ATOM     11  C   UNL     1       9.770  -0.909  24.836  0.00  0.00    +0.000 C 
ATOM     12  C   UNL     1       8.288  -1.123  25.164  0.00  0.00    +0.000 C 
ATOM     13  C   UNL     1       7.435  -0.184  24.223  0.00  0.00    +0.000 C 
ATOM     14  C   UNL     1       6.068  -0.812  23.933  0.00  0.00    +0.000 C 
ATOM     15  C   UNL     1       6.175  -2.326  23.602  0.00  0.00    +0.000 C 
ATOM     16  C   UNL     1       7.054  -3.261  24.517  0.00  0.00    +0.000 C 
ATOM     17  C   UNL     1       7.644  -2.459  25.697  0.00  0.00    +0.000 C 
ATOM     18  C   UNL     1       6.474  -2.154  26.711  0.00  0.00    +0.000 C 
ATOM     19  C   UNL     1       5.603  -3.341  27.110  0.00  0.00    +0.000 C 
ATOM     20  C   UNL     1       5.101  -4.140  25.904  0.00  0.00    +0.000 C 
ATOM     21  C   UNL     1       6.251  -4.562  24.947  0.00  0.00    +0.000 C 
ATOM     22  C   UNL     1       5.675  -5.273  23.695  0.00  0.00    +0.000 C 
ATOM     23  C   UNL     1       7.141  -5.642  25.617  0.00  0.00    +0.000 C 
ATOM     24  C   UNL     1       8.738  -3.170  26.533  0.00  0.00    +0.000 C 
ATOM     25  C   UNL     1       8.007  -0.030  22.740  0.00  0.00    +0.000 C 
ATOM     26  C   UNL     1       9.469   3.082  24.484  0.00  0.00    +0.000 C 
ATOM     27  C   UNL     1      10.814   3.354  23.697  0.00  0.00    +0.000 C 
ATOM     28  C   UNL     1      10.857   2.882  22.235  0.00  0.00    +0.000 C 
ATOM     29  C   UNL     1       7.193   1.148  26.540  0.00  0.00    +0.000 C 
ENDROOT
BRANCH  20  30
ATOM     30  O   UNL     1       4.350  -5.262  26.359  0.00  0.00    +0.000 OA
ATOM     31  H   UNL     1       3.429  -5.155  26.062  0.00  0.00    +0.000 HD
ENDBRANCH  20  30
BRANCH   5  32
ATOM     32  C   UNL     1       7.677   4.448  22.785  0.00  0.00    +0.000 C 
ATOM     33  O   UNL     1       6.938   5.388  22.561  0.00  0.00    +0.000 OA
BRANCH  32  34
ATOM     34  O   UNL     1       7.884   3.512  21.818  0.00  0.00    +0.000 OA
ATOM     35  H   UNL     1       8.643   2.938  21.987  0.00  0.00    +0.000 HD
ENDBRANCH  32  34
ENDBRANCH   5  32
TORSDOF 3
ENDMDL
MODEL 5
REMARK VINA RESULT:      -7.8      3.128      5.420
REMARK  Name = 
REMARK  10 active torsions:
REMARK  status: ('A' for Active; 'I' for Inactive)
REMARK    1  A    between atoms: C_1  and  C_2
REMARK    2  A    between atoms: C_5  and  C_31
REMARK    3  A    between atoms: C_8  and  C_30
REMARK    4  A    between atoms: C_13  and  C_26
REMARK    5  A    between atoms: C_17  and  C_25
REMARK    6  A    between atoms: C_20  and  O_24
REMARK    7  A    between atoms: C_21  and  C_22
REMARK    8  A    between atoms: C_21  and  C_23
REMARK    9  A    between atoms: C_28  and  C_29
REMARK   10  A    between atoms: C_31  and  O_33
REMARK                            x       y       z     vdW  Elec       q    Type
REMARK                         _______ _______ _______ _____ _____    ______ ____
ROOT
ATOM      1  C   UNL     1       5.595   6.967  21.924  0.00  0.00    +0.000 C 
ATOM      2  C   UNL     1       6.829   6.078  22.082  0.00  0.00    +0.000 C 
ATOM      3  C   UNL     1       7.932   6.818  22.844  0.00  0.00    +0.000 C 
ATOM      4  C   UNL     1       9.221   5.981  22.887  0.00  0.00    +0.000 C 
ATOM      5  C   UNL     1       8.969   4.711  23.741  0.00  0.00    +0.000 C 
ATOM      6  C   UNL     1      10.208   3.816  23.877  0.00  0.00    +0.000 C 
ATOM      7  C   UNL     1       9.827   2.574  24.726  0.00  0.00    +0.000 C 
ATOM      8  C   UNL     1       8.944   1.616  23.912  0.00  0.00    +0.000 C 
ATOM      9  C   UNL     1       7.792   2.348  23.112  0.00  0.00    +0.000 C 
ATOM     10  C   UNL     1       6.700   1.637  22.688  0.00  0.00    +0.000 C 
ATOM     11  C   UNL     1       6.400   0.153  22.984  0.00  0.00    +0.000 C 
ATOM     12  C   UNL     1       7.634  -0.465  23.653  0.00  0.00    +0.000 C 
ATOM     13  C   UNL     1       8.124   0.521  24.786  0.00  0.00    +0.000 C 
ATOM     14  C   UNL     1       8.790  -0.258  25.925  0.00  0.00    +0.000 C 
ATOM     15  C   UNL     1       7.987  -1.528  26.318  0.00  0.00    +0.000 C 
ATOM     16  C   UNL     1       7.464  -2.496  25.189  0.00  0.00    +0.000 C 
ATOM     17  C   UNL     1       7.929  -2.006  23.801  0.00  0.00    +0.000 C 
ATOM     18  C   UNL     1       9.475  -2.296  23.675  0.00  0.00    +0.000 C 
ATOM     19  C   UNL     1       9.927  -3.705  24.046  0.00  0.00    +0.000 C 
ATOM     20  C   UNL     1       9.382  -4.166  25.401  0.00  0.00    +0.000 C 
ATOM     21  C   UNL     1       7.839  -4.006  25.509  0.00  0.00    +0.000 C 
ATOM     22  C   UNL     1       7.358  -4.386  26.934  0.00  0.00    +0.000 C 
ATOM     23  C   UNL     1       7.125  -5.027  24.585  0.00  0.00    +0.000 C 
ATOM     24  C   UNL     1       7.281  -2.696  22.575  0.00  0.00    +0.000 C 
ATOM     25  C   UNL     1       6.952   1.258  25.582  0.00  0.00    +0.000 C 
ATOM     26  C   UNL     1       7.882   3.887  22.920  0.00  0.00    +0.000 C 
ATOM     27  C   UNL     1       6.531   4.676  22.687  0.00  0.00    +0.000 C 
ATOM     28  C   UNL     1       5.549   4.715  23.869  0.00  0.00    +0.000 C 
ATOM     29  C   UNL     1      10.023   0.961  22.942  0.00  0.00    +0.000 C 
ENDROOT
BRANCH  20  30
ATOM     30  O   UNL     1       9.795  -5.507  25.646  0.00  0.00    +0.000 OA
ATOM     31  H   UNL     1       9.114  -5.943  26.188  0.00  0.00    +0.000 HD
ENDBRANCH  20  30
BRANCH   5  32
ATOM     32  C   UNL     1       8.842   5.309  25.162  0.00  0.00    +0.000 C 
ATOM     33  O   UNL     1       7.926   5.087  25.933  0.00  0.00    +0.000 OA
BRANCH  32  34
ATOM     34  O   UNL     1       9.778   6.242  25.483  0.00  0.00    +0.000 OA
ATOM     35  H   UNL     1       9.999   6.267  26.424  0.00  0.00    +0.000 HD
ENDBRANCH  32  34
ENDBRANCH   5  32
TORSDOF 3
ENDMDL
MODEL 6
REMARK VINA RESULT:      -7.8      2.735      8.092
REMARK  Name = 
REMARK  10 active torsions:
REMARK  status: ('A' for Active; 'I' for Inactive)
REMARK    1  A    between atoms: C_1  and  C_2
REMARK    2  A    between atoms: C_5  and  C_31
REMARK    3  A    between atoms: C_8  and  C_30
REMARK    4  A    between atoms: C_13  and  C_26
REMARK    5  A    between atoms: C_17  and  C_25
REMARK    6  A    between atoms: C_20  and  O_24
REMARK    7  A    between atoms: C_21  and  C_22
REMARK    8  A    between atoms: C_21  and  C_23
REMARK    9  A    between atoms: C_28  and  C_29
REMARK   10  A    between atoms: C_31  and  O_33
REMARK                            x       y       z     vdW  Elec       q    Type
REMARK                         _______ _______ _______ _____ _____    ______ ____
ROOT
ATOM      1  C   UNL     1       6.740  -5.819  27.857  0.00  0.00    +0.000 C 
ATOM      2  C   UNL     1       7.718  -4.911  27.112  0.00  0.00    +0.000 C 
ATOM      3  C   UNL     1       8.319  -5.641  25.907  0.00  0.00    +0.000 C 
ATOM      4  C   UNL     1       9.404  -4.784  25.234  0.00  0.00    +0.000 C 
ATOM      5  C   UNL     1       8.740  -3.527  24.613  0.00  0.00    +0.000 C 
ATOM      6  C   UNL     1       9.733  -2.613  23.884  0.00  0.00    +0.000 C 
ATOM      7  C   UNL     1       8.959  -1.388  23.330  0.00  0.00    +0.000 C 
ATOM      8  C   UNL     1       8.571  -0.435  24.471  0.00  0.00    +0.000 C 
ATOM      9  C   UNL     1       7.976  -1.178  25.735  0.00  0.00    +0.000 C 
ATOM     10  C   UNL     1       7.220  -0.480  26.640  0.00  0.00    +0.000 C 
ATOM     11  C   UNL     1       6.784   0.995  26.527  0.00  0.00    +0.000 C 
ATOM     12  C   UNL     1       7.516   1.626  25.337  0.00  0.00    +0.000 C 
ATOM     13  C   UNL     1       7.406   0.636  24.111  0.00  0.00    +0.000 C 
ATOM     14  C   UNL     1       7.411   1.413  22.790  0.00  0.00    +0.000 C 
ATOM     15  C   UNL     1       6.493   2.665  22.841  0.00  0.00    +0.000 C 
ATOM     16  C   UNL     1       6.573   3.637  24.080  0.00  0.00    +0.000 C 
ATOM     17  C   UNL     1       7.670   3.170  25.060  0.00  0.00    +0.000 C 
ATOM     18  C   UNL     1       9.072   3.488  24.410  0.00  0.00    +0.000 C 
ATOM     19  C   UNL     1       9.255   4.899  23.862  0.00  0.00    +0.000 C 
ATOM     20  C   UNL     1       8.106   5.336  22.950  0.00  0.00    +0.000 C 
ATOM     21  C   UNL     1       6.712   5.149  23.614  0.00  0.00    +0.000 C 
ATOM     22  C   UNL     1       5.585   5.505  22.610  0.00  0.00    +0.000 C 
ATOM     23  C   UNL     1       6.524   6.168  24.769  0.00  0.00    +0.000 C 
ATOM     24  C   UNL     1       7.695   3.863  26.446  0.00  0.00    +0.000 C 
ATOM     25  C   UNL     1       6.009  -0.129  23.995  0.00  0.00    +0.000 C 
ATOM     26  C   UNL     1       8.180  -2.713  25.861  0.00  0.00    +0.000 C 
ATOM     27  C   UNL     1       7.134  -3.521  26.729  0.00  0.00    +0.000 C 
ATOM     28  C   UNL     1       5.699  -3.590  26.183  0.00  0.00    +0.000 C 
ATOM     29  C   UNL     1       9.975   0.248  24.784  0.00  0.00    +0.000 C 
ENDROOT
BRANCH  20  30
ATOM     30  O   UNL     1       8.318   6.681  22.531  0.00  0.00    +0.000 OA
ATOM     31  H   UNL     1       9.257   6.900  22.667  0.00  0.00    +0.000 HD
ENDBRANCH  20  30
BRANCH   5  32
ATOM     32  C   UNL     1       7.942  -4.143  23.439  0.00  0.00    +0.000 C 
ATOM     33  O   UNL     1       8.318  -5.075  22.753  0.00  0.00    +0.000 OA
BRANCH  32  34
ATOM     34  O   UNL     1       6.801  -3.481  23.104  0.00  0.00    +0.000 OA
ATOM     35  H   UNL     1       6.528  -2.821  23.755  0.00  0.00    +0.000 HD
ENDBRANCH  32  34
ENDBRANCH   5  32
TORSDOF 3
ENDMDL
MODEL 7
REMARK VINA RESULT:      -7.4      1.623      8.297
REMARK  Name = 
REMARK  10 active torsions:
REMARK  status: ('A' for Active; 'I' for Inactive)
REMARK    1  A    between atoms: C_1  and  C_2
REMARK    2  A    between atoms: C_5  and  C_31
REMARK    3  A    between atoms: C_8  and  C_30
REMARK    4  A    between atoms: C_13  and  C_26
REMARK    5  A    between atoms: C_17  and  C_25
REMARK    6  A    between atoms: C_20  and  O_24
REMARK    7  A    between atoms: C_21  and  C_22
REMARK    8  A    between atoms: C_21  and  C_23
REMARK    9  A    between atoms: C_28  and  C_29
REMARK   10  A    between atoms: C_31  and  O_33
REMARK                            x       y       z     vdW  Elec       q    Type
REMARK                         _______ _______ _______ _____ _____    ______ ____
ROOT
ATOM      1  C   UNL     1       0.498  -7.819  26.011  0.00  0.00    +0.000 C 
ATOM      2  C   UNL     1       1.297  -6.705  26.687  0.00  0.00    +0.000 C 
ATOM      3  C   UNL     1       1.712  -7.122  28.102  0.00  0.00    +0.000 C 
ATOM      4  C   UNL     1       2.397  -5.957  28.835  0.00  0.00    +0.000 C 
ATOM      5  C   UNL     1       3.743  -5.640  28.132  0.00  0.00    +0.000 C 
ATOM      6  C   UNL     1       4.528  -4.508  28.807  0.00  0.00    +0.000 C 
ATOM      7  C   UNL     1       5.835  -4.270  28.005  0.00  0.00    +0.000 C 
ATOM      8  C   UNL     1       5.528  -3.568  26.672  0.00  0.00    +0.000 C 
ATOM      9  C   UNL     1       4.291  -4.189  25.906  0.00  0.00    +0.000 C 
ATOM     10  C   UNL     1       4.144  -3.969  24.562  0.00  0.00    +0.000 C 
ATOM     11  C   UNL     1       5.131  -3.224  23.640  0.00  0.00    +0.000 C 
ATOM     12  C   UNL     1       6.212  -2.576  24.514  0.00  0.00    +0.000 C 
ATOM     13  C   UNL     1       6.708  -3.650  25.561  0.00  0.00    +0.000 C 
ATOM     14  C   UNL     1       8.175  -3.406  25.928  0.00  0.00    +0.000 C 
ATOM     15  C   UNL     1       9.050  -3.098  24.682  0.00  0.00    +0.000 C 
ATOM     16  C   UNL     1       8.543  -2.053  23.616  0.00  0.00    +0.000 C 
ATOM     17  C   UNL     1       7.202  -1.435  24.064  0.00  0.00    +0.000 C 
ATOM     18  C   UNL     1       7.496  -0.444  25.256  0.00  0.00    +0.000 C 
ATOM     19  C   UNL     1       8.626   0.557  25.035  0.00  0.00    +0.000 C 
ATOM     20  C   UNL     1       9.911  -0.101  24.528  0.00  0.00    +0.000 C 
ATOM     21  C   UNL     1       9.673  -0.989  23.274  0.00  0.00    +0.000 C 
ATOM     22  C   UNL     1      10.983  -1.713  22.869  0.00  0.00    +0.000 C 
ATOM     23  C   UNL     1       9.333  -0.107  22.044  0.00  0.00    +0.000 C 
ATOM     24  C   UNL     1       6.446  -0.591  23.007  0.00  0.00    +0.000 C 
ATOM     25  C   UNL     1       6.793  -5.142  24.996  0.00  0.00    +0.000 C 
ATOM     26  C   UNL     1       3.327  -5.126  26.685  0.00  0.00    +0.000 C 
ATOM     27  C   UNL     1       2.499  -6.183  25.849  0.00  0.00    +0.000 C 
ATOM     28  C   UNL     1       3.306  -7.303  25.173  0.00  0.00    +0.000 C 
ATOM     29  C   UNL     1       5.240  -2.084  27.172  0.00  0.00    +0.000 C 
ENDROOT
BRANCH  20  30
ATOM     30  O   UNL     1      10.895   0.902  24.288  0.00  0.00    +0.000 OA
ATOM     31  H   UNL     1      10.784   1.604  24.953  0.00  0.00    +0.000 HD
ENDBRANCH  20  30
BRANCH   5  32
ATOM     32  C   UNL     1       4.587  -6.885  28.497  0.00  0.00    +0.000 C 
ATOM     33  O   UNL     1       4.653  -7.383  29.605  0.00  0.00    +0.000 OA
BRANCH  32  34
ATOM     34  O   UNL     1       5.396  -7.346  27.505  0.00  0.00    +0.000 OA
ATOM     35  H   UNL     1       5.200  -6.972  26.635  0.00  0.00    +0.000 HD
ENDBRANCH  32  34
ENDBRANCH   5  32
TORSDOF 3
ENDMDL
MODEL 8
REMARK VINA RESULT:      -7.3      2.855      5.192
REMARK  Name = 
REMARK  10 active torsions:
REMARK  status: ('A' for Active; 'I' for Inactive)
REMARK    1  A    between atoms: C_1  and  C_2
REMARK    2  A    between atoms: C_5  and  C_31
REMARK    3  A    between atoms: C_8  and  C_30
REMARK    4  A    between atoms: C_13  and  C_26
REMARK    5  A    between atoms: C_17  and  C_25
REMARK    6  A    between atoms: C_20  and  O_24
REMARK    7  A    between atoms: C_21  and  C_22
REMARK    8  A    between atoms: C_21  and  C_23
REMARK    9  A    between atoms: C_28  and  C_29
REMARK   10  A    between atoms: C_31  and  O_33
REMARK                            x       y       z     vdW  Elec       q    Type
REMARK                         _______ _______ _______ _____ _____    ______ ____
ROOT
ATOM      1  C   UNL     1       9.926   6.358  23.360  0.00  0.00    +0.000 C 
ATOM      2  C   UNL     1       9.444   5.398  24.448  0.00  0.00    +0.000 C 
ATOM      3  C   UNL     1       8.304   6.028  25.255  0.00  0.00    +0.000 C 
ATOM      4  C   UNL     1       7.908   5.126  26.435  0.00  0.00    +0.000 C 
ATOM      5  C   UNL     1       7.289   3.815  25.881  0.00  0.00    +0.000 C 
ATOM      6  C   UNL     1       6.826   2.851  26.981  0.00  0.00    +0.000 C 
ATOM      7  C   UNL     1       6.253   1.576  26.308  0.00  0.00    +0.000 C 
ATOM      8  C   UNL     1       7.386   0.721  25.721  0.00  0.00    +0.000 C 
ATOM      9  C   UNL     1       8.458   1.563  24.919  0.00  0.00    +0.000 C 
ATOM     10  C   UNL     1       9.273   0.939  24.011  0.00  0.00    +0.000 C 
ATOM     11  C   UNL     1       9.213  -0.545  23.593  0.00  0.00    +0.000 C 
ATOM     12  C   UNL     1       8.228  -1.268  24.518  0.00  0.00    +0.000 C 
ATOM     13  C   UNL     1       6.921  -0.388  24.630  0.00  0.00    +0.000 C 
ATOM     14  C   UNL     1       5.693  -1.274  24.860  0.00  0.00    +0.000 C 
ATOM     15  C   UNL     1       5.690  -2.526  23.939  0.00  0.00    +0.000 C 
ATOM     16  C   UNL     1       7.002  -3.387  23.796  0.00  0.00    +0.000 C 
ATOM     17  C   UNL     1       8.116  -2.829  24.707  0.00  0.00    +0.000 C 
ATOM     18  C   UNL     1       7.749  -3.189  26.199  0.00  0.00    +0.000 C 
ATOM     19  C   UNL     1       7.365  -4.640  26.466  0.00  0.00    +0.000 C 
ATOM     20  C   UNL     1       6.307  -5.163  25.491  0.00  0.00    +0.000 C 
ATOM     21  C   UNL     1       6.699  -4.933  24.005  0.00  0.00    +0.000 C 
ATOM     22  C   UNL     1       5.548  -5.383  23.068  0.00  0.00    +0.000 C 
ATOM     23  C   UNL     1       7.886  -5.851  23.611  0.00  0.00    +0.000 C 
ATOM     24  C   UNL     1       9.539  -3.401  24.485  0.00  0.00    +0.000 C 
ATOM     25  C   UNL     1       6.498   0.353  23.280  0.00  0.00    +0.000 C 
ATOM     26  C   UNL     1       8.485   3.105  25.107  0.00  0.00    +0.000 C 
ATOM     27  C   UNL     1       9.086   3.976  23.931  0.00  0.00    +0.000 C 
ATOM     28  C   UNL     1       8.293   3.985  22.614  0.00  0.00    +0.000 C 
ATOM     29  C   UNL     1       7.997   0.079  27.044  0.00  0.00    +0.000 C 
ENDROOT
BRANCH  20  30
ATOM     30  O   UNL     1       6.048  -6.537  25.765  0.00  0.00    +0.000 OA
ATOM     31  H   UNL     1       5.108  -6.714  25.582  0.00  0.00    +0.000 HD
ENDBRANCH  20  30
BRANCH   5  32
ATOM     32  C   UNL     1       5.946   4.321  25.305  0.00  0.00    +0.000 C 
ATOM     33  O   UNL     1       5.582   4.178  24.153  0.00  0.00    +0.000 OA
BRANCH  32  34
ATOM     34  O   UNL     1       5.205   5.087  26.152  0.00  0.00    +0.000 OA
ATOM     35  H   UNL     1       5.724   5.737  26.645  0.00  0.00    +0.000 HD
ENDBRANCH  32  34
ENDBRANCH   5  32
TORSDOF 3
ENDMDL
MODEL 9
REMARK VINA RESULT:      -7.3      2.926      4.922
REMARK  Name = 
REMARK  10 active torsions:
REMARK  status: ('A' for Active; 'I' for Inactive)
REMARK    1  A    between atoms: C_1  and  C_2
REMARK    2  A    between atoms: C_5  and  C_31
REMARK    3  A    between atoms: C_8  and  C_30
REMARK    4  A    between atoms: C_13  and  C_26
REMARK    5  A    between atoms: C_17  and  C_25
REMARK    6  A    between atoms: C_20  and  O_24
REMARK    7  A    between atoms: C_21  and  C_22
REMARK    8  A    between atoms: C_21  and  C_23
REMARK    9  A    between atoms: C_28  and  C_29
REMARK   10  A    between atoms: C_31  and  O_33
REMARK                            x       y       z     vdW  Elec       q    Type
REMARK                         _______ _______ _______ _____ _____    ______ ____
ROOT
ATOM      1  C   UNL     1       4.408   7.108  24.966  0.00  0.00    +0.000 C 
ATOM      2  C   UNL     1       5.094   6.107  24.036  0.00  0.00    +0.000 C 
ATOM      3  C   UNL     1       6.349   6.725  23.411  0.00  0.00    +0.000 C 
ATOM      4  C   UNL     1       6.967   5.774  22.373  0.00  0.00    +0.000 C 
ATOM      5  C   UNL     1       7.499   4.511  23.101  0.00  0.00    +0.000 C 
ATOM      6  C   UNL     1       8.169   3.504  22.157  0.00  0.00    +0.000 C 
ATOM      7  C   UNL     1       8.635   2.282  22.992  0.00  0.00    +0.000 C 
ATOM      8  C   UNL     1       7.430   1.428  23.415  0.00  0.00    +0.000 C 
ATOM      9  C   UNL     1       6.217   2.281  23.964  0.00  0.00    +0.000 C 
ATOM     10  C   UNL     1       5.263   1.682  24.746  0.00  0.00    +0.000 C 
ATOM     11  C   UNL     1       5.274   0.225  25.251  0.00  0.00    +0.000 C 
ATOM     12  C   UNL     1       6.422  -0.518  24.559  0.00  0.00    +0.000 C 
ATOM     13  C   UNL     1       7.712   0.391  24.632  0.00  0.00    +0.000 C 
ATOM     14  C   UNL     1       8.977  -0.472  24.674  0.00  0.00    +0.000 C 
ATOM     15  C   UNL     1       8.837  -1.673  25.649  0.00  0.00    +0.000 C 
ATOM     16  C   UNL     1       7.536  -2.562  25.605  0.00  0.00    +0.000 C 
ATOM     17  C   UNL     1       6.594  -2.083  24.479  0.00  0.00    +0.000 C 
ATOM     18  C   UNL     1       7.229  -2.510  23.099  0.00  0.00    +0.000 C 
ATOM     19  C   UNL     1       7.680  -3.962  22.987  0.00  0.00    +0.000 C 
ATOM     20  C   UNL     1       8.556  -4.404  24.162  0.00  0.00    +0.000 C 
ATOM     21  C   UNL     1       7.899  -4.107  25.540  0.00  0.00    +0.000 C 
ATOM     22  C   UNL     1       8.872  -4.476  26.691  0.00  0.00    +0.000 C 
ATOM     23  C   UNL     1       6.677  -5.037  25.767  0.00  0.00    +0.000 C 
ATOM     24  C   UNL     1       5.165  -2.681  24.477  0.00  0.00    +0.000 C 
ATOM     25  C   UNL     1       7.873   1.212  25.992  0.00  0.00    +0.000 C 
ATOM     26  C   UNL     1       6.196   3.810  23.688  0.00  0.00    +0.000 C 
ATOM     27  C   UNL     1       5.379   4.723  24.688  0.00  0.00    +0.000 C 
ATOM     28  C   UNL     1       5.922   4.823  26.122  0.00  0.00    +0.000 C 
ATOM     29  C   UNL     1       7.078   0.701  22.042  0.00  0.00    +0.000 C 
ENDROOT
BRANCH  20  30
ATOM     30  O   UNL     1       8.884  -5.783  24.017  0.00  0.00    +0.000 OA
ATOM     31  H   UNL     1       9.260  -5.916  23.129  0.00  0.00    +0.000 HD
ENDBRANCH  20  30
BRANCH   5  32
ATOM     32  C   UNL     1       8.708   5.083  23.878  0.00  0.00    +0.000 C 
ATOM     33  O   UNL     1       8.870   4.995  25.081  0.00  0.00    +0.000 OA
BRANCH  32  34
ATOM     34  O   UNL     1       9.563   5.841  23.140  0.00  0.00    +0.000 OA
ATOM     35  H   UNL     1       9.473   5.715  22.185  0.00  0.00    +0.000 HD
ENDBRANCH  32  34
ENDBRANCH   5  32
TORSDOF 3
ENDMDL
