MODEL 1
REMARK VINA RESULT:      -7.8      0.000      0.000
REMARK  Name = 
REMARK  17 active torsions:
REMARK  status: ('A' for Active; 'I' for Inactive)
REMARK    1  A    between atoms: C_6  and  O_8
REMARK    2  A    between atoms: O_8  and  C_9
REMARK    3  A    between atoms: C_9  and  C_11
REMARK    4  A    between atoms: C_13  and  O_19
REMARK    5  A    between atoms: C_14  and  O_18
REMARK    6  A    between atoms: C_15  and  O_17
REMARK    7  A    between atoms: C_25  and  O_44
REMARK    8  A    between atoms: C_26  and  O_43
REMARK    9  A    between atoms: C_34  and  O_39
REMARK   10  A    between atoms: C_35  and  O_36
REMARK   11  A    between atoms: C_35  and  O_37
REMARK   12  A    between atoms: C_50  and  O_68
REMARK   13  A    between atoms: C_51  and  O_67
REMARK   14  A    between atoms: C_52  and  O_66
REMARK   15  A    between atoms: C_55  and  O_65
REMARK   16  A    between atoms: C_56  and  O_64
REMARK   17  A    between atoms: C_57  and  O_63
REMARK                            x       y       z     vdW  Elec       q    Type
REMARK                         _______ _______ _______ _____ _____    ______ ____
ROOT
ATOM      1  C   UNL     1      10.289   1.557  24.039  0.00  0.00    +0.000 C 
ATOM      2  C   UNL     1       9.668   0.784  25.243  0.00  0.00    +0.000 C 
ATOM      3  C   UNL     1       8.233   1.165  25.613  0.00  0.00    +0.000 C 
ATOM      4  C   UNL     1       7.479   0.961  24.286  0.00  0.00    +0.000 C 
ATOM      5  C   UNL     1       7.238  -0.518  24.179  0.00  0.00    +0.000 C 
ATOM      6  C   UNL     1       8.648  -1.197  24.115  0.00  0.00    +0.000 C 
ATOM      7  O   UNL     1       9.650  -0.655  25.031  0.00  0.00    +0.000 OA
ATOM      8  O   UNL     1       6.560  -0.853  25.402  0.00  0.00    +0.000 OA
ATOM      9  C   UNL     1       5.506  -1.677  25.320  0.00  0.00    +0.000 C 
ATOM     10  O   UNL     1       5.147  -2.351  24.380  0.00  0.00    +0.000 OA
ATOM     11  C   UNL     1       4.848  -1.616  26.622  0.00  0.00    +0.000 A 
ATOM     12  C   UNL     1       4.777  -2.827  27.321  0.00  0.00    +0.000 A 
ATOM     13  C   UNL     1       4.020  -2.889  28.475  0.00  0.00    +0.000 A 
ATOM     14  C   UNL     1       3.291  -1.787  28.889  0.00  0.00    +0.000 A 
ATOM     15  C   UNL     1       3.407  -0.565  28.219  0.00  0.00    +0.000 A 
ATOM     16  C   UNL     1       4.255  -0.432  27.104  0.00  0.00    +0.000 A 
ATOM     17  C   UNL     1       4.573   0.985  26.549  0.00  0.00    +0.000 C 
ATOM     18  C   UNL     1       5.844   1.509  27.227  0.00  0.00    +0.000 C 
ATOM     19  C   UNL     1       5.875   1.717  28.552  0.00  0.00    +0.000 C 
ATOM     20  C   UNL     1       4.570   1.848  29.262  0.00  0.00    +0.000 C 
ATOM     21  O   UNL     1       4.634   2.052  30.485  0.00  0.00    +0.000 OA
ATOM     22  C   UNL     1       3.219   1.761  28.465  0.00  0.00    +0.000 C 
ATOM     23  C   UNL     1       3.396   1.903  26.923  0.00  0.00    +0.000 C 
ATOM     24  O   UNL     1       2.660   0.472  28.720  0.00  0.00    +0.000 OA
ATOM     25  C   UNL     1       6.653   2.610  26.638  0.00  0.00    +0.000 C 
ATOM     26  O   UNL     1       6.091   3.704  26.622  0.00  0.00    +0.000 OA
ATOM     27  O   UNL     1       7.938   2.431  26.207  0.00  0.00    +0.000 OA
ATOM     28  O   UNL     1       6.367   1.845  24.240  0.00  0.00    +0.000 OA
ATOM     29  C   UNL     1       6.015   2.231  23.003  0.00  0.00    +0.000 C 
ATOM     30  O   UNL     1       6.070   1.542  22.005  0.00  0.00    +0.000 OA
ATOM     31  C   UNL     1       5.335   3.528  23.119  0.00  0.00    +0.000 A 
ATOM     32  C   UNL     1       3.952   3.364  22.805  0.00  0.00    +0.000 A 
ATOM     33  C   UNL     1       3.091   4.436  22.878  0.00  0.00    +0.000 A 
ATOM     34  C   UNL     1       3.602   5.665  23.220  0.00  0.00    +0.000 A 
ATOM     35  C   UNL     1       4.966   5.826  23.519  0.00  0.00    +0.000 A 
ATOM     36  C   UNL     1       5.915   4.760  23.538  0.00  0.00    +0.000 A 
ATOM     37  C   UNL     1       7.345   5.050  24.051  0.00  0.00    +0.000 A 
ATOM     38  C   UNL     1       7.542   5.811  25.249  0.00  0.00    +0.000 A 
ATOM     39  C   UNL     1       8.808   6.183  25.726  0.00  0.00    +0.000 A 
ATOM     40  C   UNL     1       9.935   5.993  24.966  0.00  0.00    +0.000 A 
ATOM     41  C   UNL     1       9.818   5.373  23.747  0.00  0.00    +0.000 A 
ATOM     42  C   UNL     1       8.587   4.741  23.405  0.00  0.00    +0.000 A 
ATOM     43  C   UNL     1       8.958   3.385  22.926  0.00  0.00    +0.000 C 
ATOM     44  O   UNL     1       8.703   2.857  21.863  0.00  0.00    +0.000 OA
ATOM     45  O   UNL     1       9.688   2.870  23.970  0.00  0.00    +0.000 OA
ENDROOT
BRANCH  14  46
ATOM     46  O   UNL     1       2.494  -1.881  29.994  0.00  0.00    +0.000 OA
ATOM     47  H   UNL     1       2.234  -2.820  30.046  0.00  0.00    +0.000 HD
ENDBRANCH  14  46
BRANCH  23  48
ATOM     48  O   UNL     1       2.248   1.438  26.186  0.00  0.00    +0.000 OA
ATOM     49  H   UNL     1       1.556   2.124  26.280  0.00  0.00    +0.000 HD
ENDBRANCH  23  48
BRANCH  23  50
ATOM     50  O   UNL     1       3.493   3.278  26.555  0.00  0.00    +0.000 OA
ATOM     51  H   UNL     1       3.540   3.381  25.584  0.00  0.00    +0.000 HD
ENDBRANCH  23  50
BRANCH  22  52
ATOM     52  O   UNL     1       2.288   2.759  28.893  0.00  0.00    +0.000 OA
ATOM     53  H   UNL     1       1.399   2.410  28.686  0.00  0.00    +0.000 HD
ENDBRANCH  22  52
BRANCH  33  54
ATOM     54  O   UNL     1       1.753   4.329  22.634  0.00  0.00    +0.000 OA
ATOM     55  H   UNL     1       1.348   5.215  22.688  0.00  0.00    +0.000 HD
ENDBRANCH  33  54
BRANCH  13  56
ATOM     56  O   UNL     1       3.959  -4.023  29.233  0.00  0.00    +0.000 OA
ATOM     57  H   UNL     1       3.189  -3.963  29.827  0.00  0.00    +0.000 HD
ENDBRANCH  13  56
BRANCH  40  58
ATOM     58  O   UNL     1      11.173   6.261  25.465  0.00  0.00    +0.000 OA
ATOM     59  H   UNL     1      11.537   6.944  24.864  0.00  0.00    +0.000 HD
ENDBRANCH  40  58
BRANCH  39  60
ATOM     60  O   UNL     1       8.948   6.697  26.990  0.00  0.00    +0.000 OA
ATOM     61  H   UNL     1       9.283   7.605  26.825  0.00  0.00    +0.000 HD
ENDBRANCH  39  60
BRANCH  38  62
ATOM     62  O   UNL     1       6.546   6.205  26.122  0.00  0.00    +0.000 OA
ATOM     63  H   UNL     1       5.916   5.472  26.218  0.00  0.00    +0.000 HD
ENDBRANCH  38  62
BRANCH  35  64
ATOM     64  O   UNL     1       5.339   7.108  23.859  0.00  0.00    +0.000 OA
ATOM     65  H   UNL     1       5.734   7.492  23.046  0.00  0.00    +0.000 HD
ENDBRANCH  35  64
BRANCH  34  66
ATOM     66  O   UNL     1       2.769   6.749  23.312  0.00  0.00    +0.000 OA
ATOM     67  H   UNL     1       2.333   6.800  22.434  0.00  0.00    +0.000 HD
ENDBRANCH  34  66
BRANCH   6  68
ATOM     68  O   UNL     1       8.476  -2.589  24.428  0.00  0.00    +0.000 OA
BRANCH  68  69
ATOM     69  C   UNL     1       8.396  -3.396  23.343  0.00  0.00    +0.000 C 
ATOM     70  O   UNL     1       9.007  -3.234  22.299  0.00  0.00    +0.000 OA
BRANCH  69  71
ATOM     71  C   UNL     1       7.398  -4.478  23.554  0.00  0.00    +0.000 A 
ATOM     72  C   UNL     1       6.677  -4.932  22.435  0.00  0.00    +0.000 A 
ATOM     73  C   UNL     1       5.687  -5.894  22.602  0.00  0.00    +0.000 A 
ATOM     74  C   UNL     1       5.396  -6.384  23.870  0.00  0.00    +0.000 A 
ATOM     75  C   UNL     1       6.098  -5.926  24.977  0.00  0.00    +0.000 A 
ATOM     76  C   UNL     1       7.110  -4.986  24.833  0.00  0.00    +0.000 A 
BRANCH  75  77
ATOM     77  O   UNL     1       5.770  -6.376  26.223  0.00  0.00    +0.000 OA
ATOM     78  H   UNL     1       4.816  -6.597  26.157  0.00  0.00    +0.000 HD
ENDBRANCH  75  77
BRANCH  74  79
ATOM     79  O   UNL     1       4.402  -7.305  24.051  0.00  0.00    +0.000 OA
ATOM     80  H   UNL     1       3.642  -6.780  24.380  0.00  0.00    +0.000 HD
ENDBRANCH  74  79
BRANCH  73  81
ATOM     81  O   UNL     1       4.955  -6.373  21.552  0.00  0.00    +0.000 OA
ATOM     82  H   UNL     1       5.262  -7.276  21.350  0.00  0.00    +0.000 HD
ENDBRANCH  73  81
ENDBRANCH  69  71
ENDBRANCH  68  69
ENDBRANCH   6  68
TORSDOF 17
ENDMDL
MODEL 2
REMARK VINA RESULT:      -7.2      0.936      1.440
REMARK  Name = 
REMARK  17 active torsions:
REMARK  status: ('A' for Active; 'I' for Inactive)
REMARK    1  A    between atoms: C_6  and  O_8
REMARK    2  A    between atoms: O_8  and  C_9
REMARK    3  A    between atoms: C_9  and  C_11
REMARK    4  A    between atoms: C_13  and  O_19
REMARK    5  A    between atoms: C_14  and  O_18
REMARK    6  A    between atoms: C_15  and  O_17
REMARK    7  A    between atoms: C_25  and  O_44
REMARK    8  A    between atoms: C_26  and  O_43
REMARK    9  A    between atoms: C_34  and  O_39
REMARK   10  A    between atoms: C_35  and  O_36
REMARK   11  A    between atoms: C_35  and  O_37
REMARK   12  A    between atoms: C_50  and  O_68
REMARK   13  A    between atoms: C_51  and  O_67
REMARK   14  A    between atoms: C_52  and  O_66
REMARK   15  A    between atoms: C_55  and  O_65
REMARK   16  A    between atoms: C_56  and  O_64
REMARK   17  A    between atoms: C_57  and  O_63
REMARK                            x       y       z     vdW  Elec       q    Type
REMARK                         _______ _______ _______ _____ _____    ______ ____
ROOT
ATOM      1  C   UNL     1      10.373   0.595  23.771  0.00  0.00    +0.000 C 
ATOM      2  C   UNL     1       9.719   0.102  25.098  0.00  0.00    +0.000 C 
ATOM      3  C   UNL     1       8.388   0.759  25.472  0.00  0.00    +0.000 C 
ATOM      4  C   UNL     1       7.526   0.508  24.221  0.00  0.00    +0.000 C 
ATOM      5  C   UNL     1       7.049  -0.912  24.335  0.00  0.00    +0.000 C 
ATOM      6  C   UNL     1       8.328  -1.816  24.307  0.00  0.00    +0.000 C 
ATOM      7  O   UNL     1       9.461  -1.330  25.093  0.00  0.00    +0.000 OA
ATOM      8  O   UNL     1       6.409  -0.965  25.621  0.00  0.00    +0.000 OA
ATOM      9  C   UNL     1       5.236  -1.608  25.703  0.00  0.00    +0.000 C 
ATOM     10  O   UNL     1       4.714  -2.333  24.884  0.00  0.00    +0.000 OA
ATOM     11  C   UNL     1       4.683  -1.267  27.010  0.00  0.00    +0.000 A 
ATOM     12  C   UNL     1       4.468  -2.347  27.876  0.00  0.00    +0.000 A 
ATOM     13  C   UNL     1       3.788  -2.129  29.059  0.00  0.00    +0.000 A 
ATOM     14  C   UNL     1       3.270  -0.877  29.343  0.00  0.00    +0.000 A 
ATOM     15  C   UNL     1       3.532   0.209  28.503  0.00  0.00    +0.000 A 
ATOM     16  C   UNL     1       4.315   0.052  27.345  0.00  0.00    +0.000 A 
ATOM     17  C   UNL     1       4.815   1.310  26.582  0.00  0.00    +0.000 C 
ATOM     18  C   UNL     1       6.195   1.703  27.123  0.00  0.00    +0.000 C 
ATOM     19  C   UNL     1       6.345   2.077  28.403  0.00  0.00    +0.000 C 
ATOM     20  C   UNL     1       5.125   2.514  29.142  0.00  0.00    +0.000 C 
ATOM     21  O   UNL     1       5.301   2.866  30.320  0.00  0.00    +0.000 OA
ATOM     22  C   UNL     1       3.729   2.546  28.426  0.00  0.00    +0.000 C 
ATOM     23  C   UNL     1       3.824   2.451  26.872  0.00  0.00    +0.000 C 
ATOM     24  O   UNL     1       2.992   1.412  28.885  0.00  0.00    +0.000 OA
ATOM     25  C   UNL     1       7.126   2.568  26.349  0.00  0.00    +0.000 C 
ATOM     26  O   UNL     1       6.743   3.728  26.203  0.00  0.00    +0.000 OA
ATOM     27  O   UNL     1       8.335   2.124  25.893  0.00  0.00    +0.000 OA
ATOM     28  O   UNL     1       6.567   1.549  24.099  0.00  0.00    +0.000 OA
ATOM     29  C   UNL     1       6.199   1.820  22.836  0.00  0.00    +0.000 C 
ATOM     30  O   UNL     1       6.079   1.006  21.944  0.00  0.00    +0.000 OA
ATOM     31  C   UNL     1       5.740   3.215  22.797  0.00  0.00    +0.000 A 
ATOM     32  C   UNL     1       4.331   3.241  22.569  0.00  0.00    +0.000 A 
ATOM     33  C   UNL     1       3.655   4.440  22.527  0.00  0.00    +0.000 A 
ATOM     34  C   UNL     1       4.375   5.602  22.668  0.00  0.00    +0.000 A 
ATOM     35  C   UNL     1       5.764   5.575  22.883  0.00  0.00    +0.000 A 
ATOM     36  C   UNL     1       6.532   4.380  23.011  0.00  0.00    +0.000 A 
ATOM     37  C   UNL     1       8.021   4.496  23.416  0.00  0.00    +0.000 A 
ATOM     38  C   UNL     1       8.414   5.366  24.484  0.00  0.00    +0.000 A 
ATOM     39  C   UNL     1       9.751   5.584  24.848  0.00  0.00    +0.000 A 
ATOM     40  C   UNL     1      10.781   5.113  24.074  0.00  0.00    +0.000 A 
ATOM     41  C   UNL     1      10.489   4.364  22.962  0.00  0.00    +0.000 A 
ATOM     42  C   UNL     1       9.154   3.903  22.766  0.00  0.00    +0.000 A 
ATOM     43  C   UNL     1       9.275   2.454  22.468  0.00  0.00    +0.000 C 
ATOM     44  O   UNL     1       8.872   1.838  21.503  0.00  0.00    +0.000 OA
ATOM     45  O   UNL     1       9.983   1.969  23.542  0.00  0.00    +0.000 OA
ENDROOT
BRANCH  14  46
ATOM     46  O   UNL     1       2.543  -0.692  30.485  0.00  0.00    +0.000 OA
ATOM     47  H   UNL     1       1.890  -1.417  30.497  0.00  0.00    +0.000 HD
ENDBRANCH  14  46
BRANCH  23  48
ATOM     48  O   UNL     1       2.571   2.088  26.260  0.00  0.00    +0.000 OA
ATOM     49  H   UNL     1       2.282   1.254  26.683  0.00  0.00    +0.000 HD
ENDBRANCH  23  48
BRANCH  23  50
ATOM     50  O   UNL     1       4.112   3.730  26.310  0.00  0.00    +0.000 OA
ATOM     51  H   UNL     1       5.072   3.914  26.325  0.00  0.00    +0.000 HD
ENDBRANCH  23  50
BRANCH  22  52
ATOM     52  O   UNL     1       2.996   3.731  28.748  0.00  0.00    +0.000 OA
ATOM     53  H   UNL     1       3.490   4.475  28.350  0.00  0.00    +0.000 HD
ENDBRANCH  22  52
BRANCH  33  54
ATOM     54  O   UNL     1       2.304   4.524  22.359  0.00  0.00    +0.000 OA
ATOM     55  H   UNL     1       1.962   5.262  22.896  0.00  0.00    +0.000 HD
ENDBRANCH  33  54
BRANCH  13  56
ATOM     56  O   UNL     1       3.600  -3.127  29.971  0.00  0.00    +0.000 OA
ATOM     57  H   UNL     1       3.921  -2.823  30.841  0.00  0.00    +0.000 HD
ENDBRANCH  13  56
BRANCH  40  58
ATOM     58  O   UNL     1      12.076   5.237  24.477  0.00  0.00    +0.000 OA
ATOM     59  H   UNL     1      12.602   4.974  23.693  0.00  0.00    +0.000 HD
ENDBRANCH  40  58
BRANCH  39  60
ATOM     60  O   UNL     1      10.052   6.232  26.019  0.00  0.00    +0.000 OA
ATOM     61  H   UNL     1       9.768   7.155  25.843  0.00  0.00    +0.000 HD
ENDBRANCH  39  60
BRANCH  38  62
ATOM     62  O   UNL     1       7.551   6.031  25.334  0.00  0.00    +0.000 OA
ATOM     63  H   UNL     1       8.062   6.685  25.838  0.00  0.00    +0.000 HD
ENDBRANCH  38  62
BRANCH  35  64
ATOM     64  O   UNL     1       6.355   6.811  23.021  0.00  0.00    +0.000 OA
ATOM     65  H   UNL     1       7.321   6.640  23.062  0.00  0.00    +0.000 HD
ENDBRANCH  35  64
BRANCH  34  66
ATOM     66  O   UNL     1       3.730   6.812  22.642  0.00  0.00    +0.000 OA
ATOM     67  H   UNL     1       3.205   6.829  23.471  0.00  0.00    +0.000 HD
ENDBRANCH  34  66
BRANCH   6  68
ATOM     68  O   UNL     1       7.961  -3.107  24.821  0.00  0.00    +0.000 OA
BRANCH  68  69
ATOM     69  C   UNL     1       7.620  -4.008  23.868  0.00  0.00    +0.000 C 
ATOM     70  O   UNL     1       8.086  -4.049  22.741  0.00  0.00    +0.000 OA
BRANCH  69  71
ATOM     71  C   UNL     1       6.537  -4.907  24.346  0.00  0.00    +0.000 A 
ATOM     72  C   UNL     1       6.575  -5.322  25.689  0.00  0.00    +0.000 A 
ATOM     73  C   UNL     1       5.620  -6.217  26.157  0.00  0.00    +0.000 A 
ATOM     74  C   UNL     1       4.649  -6.716  25.296  0.00  0.00    +0.000 A 
ATOM     75  C   UNL     1       4.620  -6.317  23.967  0.00  0.00    +0.000 A 
ATOM     76  C   UNL     1       5.546  -5.404  23.482  0.00  0.00    +0.000 A 
BRANCH  75  77
ATOM     77  O   UNL     1       3.694  -6.853  23.118  0.00  0.00    +0.000 OA
ATOM     78  H   UNL     1       3.538  -7.756  23.468  0.00  0.00    +0.000 HD
ENDBRANCH  75  77
BRANCH  74  79
ATOM     79  O   UNL     1       3.724  -7.622  25.737  0.00  0.00    +0.000 OA
ATOM     80  H   UNL     1       3.163  -7.796  24.952  0.00  0.00    +0.000 HD
ENDBRANCH  74  79
BRANCH  73  81
ATOM     81  O   UNL     1       5.606  -6.654  27.452  0.00  0.00    +0.000 OA
ATOM     82  H   UNL     1       5.072  -7.467  27.497  0.00  0.00    +0.000 HD
ENDBRANCH  73  81
ENDBRANCH  69  71
ENDBRANCH  68  69
ENDBRANCH   6  68
TORSDOF 17
ENDMDL
MODEL 3
REMARK VINA RESULT:      -6.9      2.028      8.514
REMARK  Name = 
REMARK  17 active torsions:
REMARK  status: ('A' for Active; 'I' for Inactive)
REMARK    1  A    between atoms: C_6  and  O_8
REMARK    2  A    between atoms: O_8  and  C_9
REMARK    3  A    between atoms: C_9  and  C_11
REMARK    4  A    between atoms: C_13  and  O_19
REMARK    5  A    between atoms: C_14  and  O_18
REMARK    6  A    between atoms: C_15  and  O_17
REMARK    7  A    between atoms: C_25  and  O_44
REMARK    8  A    between atoms: C_26  and  O_43
REMARK    9  A    between atoms: C_34  and  O_39
REMARK   10  A    between atoms: C_35  and  O_36
REMARK   11  A    between atoms: C_35  and  O_37
REMARK   12  A    between atoms: C_50  and  O_68
REMARK   13  A    between atoms: C_51  and  O_67
REMARK   14  A    between atoms: C_52  and  O_66
REMARK   15  A    between atoms: C_55  and  O_65
REMARK   16  A    between atoms: C_56  and  O_64
REMARK   17  A    between atoms: C_57  and  O_63
REMARK                            x       y       z     vdW  Elec       q    Type
REMARK                         _______ _______ _______ _____ _____    ______ ____
ROOT
ATOM      1  C   UNL     1       8.551  -2.485  22.766  0.00  0.00    +0.000 C 
ATOM      2  C   UNL     1       7.764  -1.243  23.284  0.00  0.00    +0.000 C 
ATOM      3  C   UNL     1       6.832  -1.490  24.474  0.00  0.00    +0.000 C 
ATOM      4  C   UNL     1       7.780  -2.108  25.518  0.00  0.00    +0.000 C 
ATOM      5  C   UNL     1       8.524  -0.952  26.125  0.00  0.00    +0.000 C 
ATOM      6  C   UNL     1       9.346  -0.293  24.967  0.00  0.00    +0.000 C 
ATOM      7  O   UNL     1       8.642  -0.157  23.693  0.00  0.00    +0.000 OA
ATOM      8  O   UNL     1       7.487  -0.071  26.589  0.00  0.00    +0.000 OA
ATOM      9  C   UNL     1       7.637   0.478  27.802  0.00  0.00    +0.000 C 
ATOM     10  O   UNL     1       8.624   0.497  28.504  0.00  0.00    +0.000 OA
ATOM     11  C   UNL     1       6.346   1.073  28.134  0.00  0.00    +0.000 A 
ATOM     12  C   UNL     1       6.355   2.458  28.345  0.00  0.00    +0.000 A 
ATOM     13  C   UNL     1       5.215   3.067  28.832  0.00  0.00    +0.000 A 
ATOM     14  C   UNL     1       4.109   2.304  29.170  0.00  0.00    +0.000 A 
ATOM     15  C   UNL     1       4.085   0.931  28.907  0.00  0.00    +0.000 A 
ATOM     16  C   UNL     1       5.186   0.292  28.309  0.00  0.00    +0.000 A 
ATOM     17  C   UNL     1       5.034  -1.163  27.784  0.00  0.00    +0.000 C 
ATOM     18  C   UNL     1       4.616  -1.118  26.311  0.00  0.00    +0.000 C 
ATOM     19  C   UNL     1       3.445  -0.570  25.950  0.00  0.00    +0.000 C 
ATOM     20  C   UNL     1       2.402  -0.412  27.004  0.00  0.00    +0.000 C 
ATOM     21  O   UNL     1       1.326   0.087  26.635  0.00  0.00    +0.000 OA
ATOM     22  C   UNL     1       2.676  -0.894  28.473  0.00  0.00    +0.000 C 
ATOM     23  C   UNL     1       3.914  -1.834  28.599  0.00  0.00    +0.000 C 
ATOM     24  O   UNL     1       2.934   0.269  29.259  0.00  0.00    +0.000 OA
ATOM     25  C   UNL     1       4.798  -2.284  25.404  0.00  0.00    +0.000 C 
ATOM     26  O   UNL     1       4.097  -3.257  25.677  0.00  0.00    +0.000 OA
ATOM     27  O   UNL     1       5.633  -2.251  24.322  0.00  0.00    +0.000 OA
ATOM     28  O   UNL     1       7.038  -2.971  26.368  0.00  0.00    +0.000 OA
ATOM     29  C   UNL     1       7.744  -3.997  26.871  0.00  0.00    +0.000 C 
ATOM     30  O   UNL     1       8.912  -3.959  27.197  0.00  0.00    +0.000 OA
ATOM     31  C   UNL     1       6.798  -5.079  27.178  0.00  0.00    +0.000 A 
ATOM     32  C   UNL     1       6.709  -5.239  28.595  0.00  0.00    +0.000 A 
ATOM     33  C   UNL     1       5.854  -6.171  29.137  0.00  0.00    +0.000 A 
ATOM     34  C   UNL     1       5.126  -6.966  28.284  0.00  0.00    +0.000 A 
ATOM     35  C   UNL     1       5.223  -6.814  26.889  0.00  0.00    +0.000 A 
ATOM     36  C   UNL     1       6.027  -5.828  26.244  0.00  0.00    +0.000 A 
ATOM     37  C   UNL     1       5.906  -5.662  24.710  0.00  0.00    +0.000 A 
ATOM     38  C   UNL     1       4.617  -5.630  24.086  0.00  0.00    +0.000 A 
ATOM     39  C   UNL     1       4.435  -5.567  22.697  0.00  0.00    +0.000 A 
ATOM     40  C   UNL     1       5.494  -5.718  21.836  0.00  0.00    +0.000 A 
ATOM     41  C   UNL     1       6.755  -5.873  22.355  0.00  0.00    +0.000 A 
ATOM     42  C   UNL     1       6.967  -5.642  23.746  0.00  0.00    +0.000 A 
ATOM     43  C   UNL     1       8.141  -4.736  23.822  0.00  0.00    +0.000 C 
ATOM     44  O   UNL     1       9.188  -4.894  24.416  0.00  0.00    +0.000 OA
ATOM     45  O   UNL     1       7.772  -3.673  23.033  0.00  0.00    +0.000 OA
ENDROOT
BRANCH  14  46
ATOM     46  O   UNL     1       3.012   2.911  29.712  0.00  0.00    +0.000 OA
ATOM     47  H   UNL     1       3.011   2.651  30.653  0.00  0.00    +0.000 HD
ENDBRANCH  14  46
BRANCH  23  48
ATOM     48  O   UNL     1       4.389  -1.949  29.955  0.00  0.00    +0.000 OA
ATOM     49  H   UNL     1       4.861  -1.117  30.159  0.00  0.00    +0.000 HD
ENDBRANCH  23  48
BRANCH  23  50
ATOM     50  O   UNL     1       3.563  -3.173  28.254  0.00  0.00    +0.000 OA
ATOM     51  H   UNL     1       2.648  -3.379  28.528  0.00  0.00    +0.000 HD
ENDBRANCH  23  50
BRANCH  22  52
ATOM     52  O   UNL     1       1.548  -1.580  29.024  0.00  0.00    +0.000 OA
ATOM     53  H   UNL     1       1.874  -2.455  29.314  0.00  0.00    +0.000 HD
ENDBRANCH  22  52
BRANCH  33  54
ATOM     54  O   UNL     1       5.693  -6.336  30.481  0.00  0.00    +0.000 OA
ATOM     55  H   UNL     1       6.096  -5.579  30.945  0.00  0.00    +0.000 HD
ENDBRANCH  33  54
BRANCH  13  56
ATOM     56  O   UNL     1       5.141   4.419  29.002  0.00  0.00    +0.000 OA
ATOM     57  H   UNL     1       5.585   4.855  28.250  0.00  0.00    +0.000 HD
ENDBRANCH  13  56
BRANCH  40  58
ATOM     58  O   UNL     1       5.337  -5.559  20.494  0.00  0.00    +0.000 OA
ATOM     59  H   UNL     1       4.999  -4.645  20.393  0.00  0.00    +0.000 HD
ENDBRANCH  40  58
BRANCH  39  60
ATOM     60  O   UNL     1       3.197  -5.298  22.172  0.00  0.00    +0.000 OA
ATOM     61  H   UNL     1       3.325  -4.430  21.731  0.00  0.00    +0.000 HD
ENDBRANCH  39  60
BRANCH  38  62
ATOM     62  O   UNL     1       3.407  -5.575  24.750  0.00  0.00    +0.000 OA
ATOM     63  H   UNL     1       3.575  -5.326  25.673  0.00  0.00    +0.000 HD
ENDBRANCH  38  62
BRANCH  35  64
ATOM     64  O   UNL     1       4.428  -7.667  26.156  0.00  0.00    +0.000 OA
ATOM     65  H   UNL     1       4.356  -8.487  26.691  0.00  0.00    +0.000 HD
ENDBRANCH  35  64
BRANCH  34  66
ATOM     66  O   UNL     1       4.258  -7.897  28.792  0.00  0.00    +0.000 OA
ATOM     67  H   UNL     1       3.617  -7.374  29.320  0.00  0.00    +0.000 HD
ENDBRANCH  34  66
BRANCH   6  68
ATOM     68  O   UNL     1       9.728   1.025  25.398  0.00  0.00    +0.000 OA
BRANCH  68  69
ATOM     69  C   UNL     1       9.966   1.892  24.385  0.00  0.00    +0.000 C 
ATOM     70  O   UNL     1      10.963   1.895  23.681  0.00  0.00    +0.000 OA
BRANCH  69  71
ATOM     71  C   UNL     1       8.883   2.906  24.284  0.00  0.00    +0.000 A 
ATOM     72  C   UNL     1       8.529   3.360  23.001  0.00  0.00    +0.000 A 
ATOM     73  C   UNL     1       7.569   4.357  22.867  0.00  0.00    +0.000 A 
ATOM     74  C   UNL     1       6.983   4.917  23.996  0.00  0.00    +0.000 A 
ATOM     75  C   UNL     1       7.342   4.479  25.264  0.00  0.00    +0.000 A 
ATOM     76  C   UNL     1       8.277   3.466  25.422  0.00  0.00    +0.000 A 
BRANCH  75  77
ATOM     77  O   UNL     1       6.797   5.071  26.367  0.00  0.00    +0.000 OA
ATOM     78  H   UNL     1       7.540   5.125  27.005  0.00  0.00    +0.000 HD
ENDBRANCH  75  77
BRANCH  74  79
ATOM     79  O   UNL     1       6.061   5.921  23.879  0.00  0.00    +0.000 OA
ATOM     80  H   UNL     1       5.198   5.474  24.006  0.00  0.00    +0.000 HD
ENDBRANCH  74  79
BRANCH  73  81
ATOM     81  O   UNL     1       7.184   4.836  21.647  0.00  0.00    +0.000 OA
ATOM     82  H   UNL     1       6.211   4.876  21.625  0.00  0.00    +0.000 HD
ENDBRANCH  73  81
ENDBRANCH  69  71
ENDBRANCH  68  69
ENDBRANCH   6  68
TORSDOF 17
ENDMDL
MODEL 4
REMARK VINA RESULT:      -6.9      1.504      1.930
REMARK  Name = 
REMARK  17 active torsions:
REMARK  status: ('A' for Active; 'I' for Inactive)
REMARK    1  A    between atoms: C_6  and  O_8
REMARK    2  A    between atoms: O_8  and  C_9
REMARK    3  A    between atoms: C_9  and  C_11
REMARK    4  A    between atoms: C_13  and  O_19
REMARK    5  A    between atoms: C_14  and  O_18
REMARK    6  A    between atoms: C_15  and  O_17
REMARK    7  A    between atoms: C_25  and  O_44
REMARK    8  A    between atoms: C_26  and  O_43
REMARK    9  A    between atoms: C_34  and  O_39
REMARK   10  A    between atoms: C_35  and  O_36
REMARK   11  A    between atoms: C_35  and  O_37
REMARK   12  A    between atoms: C_50  and  O_68
REMARK   13  A    between atoms: C_51  and  O_67
REMARK   14  A    between atoms: C_52  and  O_66
REMARK   15  A    between atoms: C_55  and  O_65
REMARK   16  A    between atoms: C_56  and  O_64
REMARK   17  A    between atoms: C_57  and  O_63
REMARK                            x       y       z     vdW  Elec       q    Type
REMARK                         _______ _______ _______ _____ _____    ______ ____
ROOT
ATOM      1  C   UNL     1       9.675   2.728  23.088  0.00  0.00    +0.000 C 
ATOM      2  C   UNL     1       9.477   1.526  24.061  0.00  0.00    +0.000 C 
ATOM      3  C   UNL     1       8.168   1.516  24.854  0.00  0.00    +0.000 C 
ATOM      4  C   UNL     1       7.104   1.602  23.745  0.00  0.00    +0.000 C 
ATOM      5  C   UNL     1       6.977   0.210  23.194  0.00  0.00    +0.000 C 
ATOM      6  C   UNL     1       8.371  -0.157  22.584  0.00  0.00    +0.000 C 
ATOM      7  O   UNL     1       9.532   0.242  23.378  0.00  0.00    +0.000 OA
ATOM      8  O   UNL     1       6.689  -0.599  24.347  0.00  0.00    +0.000 OA
ATOM      9  C   UNL     1       5.732  -1.529  24.229  0.00  0.00    +0.000 C 
ATOM     10  O   UNL     1       5.193  -1.932  23.222  0.00  0.00    +0.000 OA
ATOM     11  C   UNL     1       5.450  -1.988  25.585  0.00  0.00    +0.000 A 
ATOM     12  C   UNL     1       5.681  -3.349  25.823  0.00  0.00    +0.000 A 
ATOM     13  C   UNL     1       5.275  -3.895  27.026  0.00  0.00    +0.000 A 
ATOM     14  C   UNL     1       4.589  -3.120  27.946  0.00  0.00    +0.000 A 
ATOM     15  C   UNL     1       4.409  -1.751  27.728  0.00  0.00    +0.000 A 
ATOM     16  C   UNL     1       4.906  -1.134  26.565  0.00  0.00    +0.000 A 
ATOM     17  C   UNL     1       4.933   0.417  26.474  0.00  0.00    +0.000 C 
ATOM     18  C   UNL     1       6.288   0.921  26.983  0.00  0.00    +0.000 C 
ATOM     19  C   UNL     1       6.659   0.712  28.256  0.00  0.00    +0.000 C 
ATOM     20  C   UNL     1       5.589   0.387  29.243  0.00  0.00    +0.000 C 
ATOM     21  O   UNL     1       5.964   0.212  30.414  0.00  0.00    +0.000 OA
ATOM     22  C   UNL     1       4.086   0.315  28.793  0.00  0.00    +0.000 C 
ATOM     23  C   UNL     1       3.823   0.954  27.396  0.00  0.00    +0.000 C 
ATOM     24  O   UNL     1       3.736  -1.067  28.710  0.00  0.00    +0.000 OA
ATOM     25  C   UNL     1       6.803   2.274  26.641  0.00  0.00    +0.000 C 
ATOM     26  O   UNL     1       6.162   3.204  27.129  0.00  0.00    +0.000 OA
ATOM     27  O   UNL     1       7.933   2.465  25.896  0.00  0.00    +0.000 OA
ATOM     28  O   UNL     1       5.947   2.248  24.258  0.00  0.00    +0.000 OA
ATOM     29  C   UNL     1       5.238   2.929  23.342  0.00  0.00    +0.000 C 
ATOM     30  O   UNL     1       5.081   2.603  22.183  0.00  0.00    +0.000 OA
ATOM     31  C   UNL     1       4.501   3.986  24.047  0.00  0.00    +0.000 A 
ATOM     32  C   UNL     1       3.105   3.688  24.017  0.00  0.00    +0.000 A 
ATOM     33  C   UNL     1       2.204   4.516  24.646  0.00  0.00    +0.000 A 
ATOM     34  C   UNL     1       2.676   5.650  25.264  0.00  0.00    +0.000 A 
ATOM     35  C   UNL     1       4.050   5.947  25.283  0.00  0.00    +0.000 A 
ATOM     36  C   UNL     1       5.060   5.111  24.720  0.00  0.00    +0.000 A 
ATOM     37  C   UNL     1       6.544   5.475  24.964  0.00  0.00    +0.000 A 
ATOM     38  C   UNL     1       6.990   5.851  26.272  0.00  0.00    +0.000 A 
ATOM     39  C   UNL     1       8.299   6.274  26.548  0.00  0.00    +0.000 A 
ATOM     40  C   UNL     1       9.189   6.528  25.535  0.00  0.00    +0.000 A 
ATOM     41  C   UNL     1       8.802   6.304  24.237  0.00  0.00    +0.000 A 
ATOM     42  C   UNL     1       7.586   5.602  23.987  0.00  0.00    +0.000 A 
ATOM     43  C   UNL     1       7.933   4.548  23.001  0.00  0.00    +0.000 C 
ATOM     44  O   UNL     1       7.448   4.337  21.909  0.00  0.00    +0.000 OA
ATOM     45  O   UNL     1       8.963   3.872  23.611  0.00  0.00    +0.000 OA
ENDROOT
BRANCH  14  46
ATOM     46  O   UNL     1       4.135  -3.689  29.101  0.00  0.00    +0.000 OA
ATOM     47  H   UNL     1       4.725  -4.449  29.265  0.00  0.00    +0.000 HD
ENDBRANCH  14  46
BRANCH  23  48
ATOM     48  O   UNL     1       2.565   0.545  26.825  0.00  0.00    +0.000 OA
ATOM     49  H   UNL     1       2.168  -0.096  27.448  0.00  0.00    +0.000 HD
ENDBRANCH  23  48
BRANCH  23  50
ATOM     50  O   UNL     1       3.693   2.370  27.510  0.00  0.00    +0.000 OA
ATOM     51  H   UNL     1       3.875   2.811  26.657  0.00  0.00    +0.000 HD
ENDBRANCH  23  50
BRANCH  22  52
ATOM     52  O   UNL     1       3.220   0.953  29.736  0.00  0.00    +0.000 OA
ATOM     53  H   UNL     1       2.935   1.791  29.323  0.00  0.00    +0.000 HD
ENDBRANCH  22  52
BRANCH  33  54
ATOM     54  O   UNL     1       0.865   4.257  24.691  0.00  0.00    +0.000 OA
ATOM     55  H   UNL     1       0.717   3.313  24.496  0.00  0.00    +0.000 HD
ENDBRANCH  33  54
BRANCH  13  56
ATOM     56  O   UNL     1       5.525  -5.200  27.341  0.00  0.00    +0.000 OA
ATOM     57  H   UNL     1       4.707  -5.601  27.688  0.00  0.00    +0.000 HD
ENDBRANCH  13  56
BRANCH  40  58
ATOM     58  O   UNL     1      10.487   6.842  25.802  0.00  0.00    +0.000 OA
ATOM     59  H   UNL     1      10.729   6.262  26.553  0.00  0.00    +0.000 HD
ENDBRANCH  40  58
BRANCH  39  60
ATOM     60  O   UNL     1       8.730   6.389  27.845  0.00  0.00    +0.000 OA
ATOM     61  H   UNL     1       9.553   6.918  27.760  0.00  0.00    +0.000 HD
ENDBRANCH  39  60
BRANCH  38  62
ATOM     62  O   UNL     1       6.237   5.776  27.428  0.00  0.00    +0.000 OA
ATOM     63  H   UNL     1       6.771   6.118  28.164  0.00  0.00    +0.000 HD
ENDBRANCH  38  62
BRANCH  35  64
ATOM     64  O   UNL     1       4.384   7.106  25.948  0.00  0.00    +0.000 OA
ATOM     65  H   UNL     1       3.832   7.810  25.545  0.00  0.00    +0.000 HD
ENDBRANCH  35  64
BRANCH  34  66
ATOM     66  O   UNL     1       1.805   6.489  25.909  0.00  0.00    +0.000 OA
ATOM     67  H   UNL     1       0.992   6.470  25.359  0.00  0.00    +0.000 HD
ENDBRANCH  34  66
BRANCH   6  68
ATOM     68  O   UNL     1       8.418  -1.586  22.430  0.00  0.00    +0.000 OA
BRANCH  68  69
ATOM     69  C   UNL     1       9.527  -2.165  22.951  0.00  0.00    +0.000 C 
ATOM     70  O   UNL     1      10.675  -1.856  22.679  0.00  0.00    +0.000 OA
BRANCH  69  71
ATOM     71  C   UNL     1       9.168  -3.291  23.853  0.00  0.00    +0.000 A 
ATOM     72  C   UNL     1       8.100  -4.122  23.469  0.00  0.00    +0.000 A 
ATOM     73  C   UNL     1       7.689  -5.145  24.317  0.00  0.00    +0.000 A 
ATOM     74  C   UNL     1       8.313  -5.327  25.545  0.00  0.00    +0.000 A 
ATOM     75  C   UNL     1       9.358  -4.497  25.931  0.00  0.00    +0.000 A 
ATOM     76  C   UNL     1       9.805  -3.487  25.091  0.00  0.00    +0.000 A 
BRANCH  75  77
ATOM     77  O   UNL     1       9.930  -4.653  27.161  0.00  0.00    +0.000 OA
ATOM     78  H   UNL     1      10.560  -3.904  27.232  0.00  0.00    +0.000 HD
ENDBRANCH  75  77
BRANCH  74  79
ATOM     79  O   UNL     1       7.895  -6.308  26.402  0.00  0.00    +0.000 OA
ATOM     80  H   UNL     1       8.726  -6.706  26.738  0.00  0.00    +0.000 HD
ENDBRANCH  74  79
BRANCH  73  81
ATOM     81  O   UNL     1       6.659  -5.985  23.997  0.00  0.00    +0.000 OA
ATOM     82  H   UNL     1       6.846  -6.384  23.128  0.00  0.00    +0.000 HD
ENDBRANCH  73  81
ENDBRANCH  69  71
ENDBRANCH  68  69
ENDBRANCH   6  68
TORSDOF 17
ENDMDL
MODEL 5
REMARK VINA RESULT:      -5.9      2.236      8.794
REMARK  Name = 
REMARK  17 active torsions:
REMARK  status: ('A' for Active; 'I' for Inactive)
REMARK    1  A    between atoms: C_6  and  O_8
REMARK    2  A    between atoms: O_8  and  C_9
REMARK    3  A    between atoms: C_9  and  C_11
REMARK    4  A    between atoms: C_13  and  O_19
REMARK    5  A    between atoms: C_14  and  O_18
REMARK    6  A    between atoms: C_15  and  O_17
REMARK    7  A    between atoms: C_25  and  O_44
REMARK    8  A    between atoms: C_26  and  O_43
REMARK    9  A    between atoms: C_34  and  O_39
REMARK   10  A    between atoms: C_35  and  O_36
REMARK   11  A    between atoms: C_35  and  O_37
REMARK   12  A    between atoms: C_50  and  O_68
REMARK   13  A    between atoms: C_51  and  O_67
REMARK   14  A    between atoms: C_52  and  O_66
REMARK   15  A    between atoms: C_55  and  O_65
REMARK   16  A    between atoms: C_56  and  O_64
REMARK   17  A    between atoms: C_57  and  O_63
REMARK                            x       y       z     vdW  Elec       q    Type
REMARK                         _______ _______ _______ _____ _____    ______ ____
ROOT
ATOM      1  C   UNL     1       6.056  -4.094  21.721  0.00  0.00    +0.000 C 
ATOM      2  C   UNL     1       5.852  -2.651  22.276  0.00  0.00    +0.000 C 
ATOM      3  C   UNL     1       5.460  -2.552  23.753  0.00  0.00    +0.000 C 
ATOM      4  C   UNL     1       6.585  -3.336  24.452  0.00  0.00    +0.000 C 
ATOM      5  C   UNL     1       7.752  -2.392  24.525  0.00  0.00    +0.000 C 
ATOM      6  C   UNL     1       8.153  -2.063  23.047  0.00  0.00    +0.000 C 
ATOM      7  O   UNL     1       7.040  -1.824  22.130  0.00  0.00    +0.000 OA
ATOM      8  O   UNL     1       7.224  -1.230  25.186  0.00  0.00    +0.000 OA
ATOM      9  C   UNL     1       7.976  -0.664  26.140  0.00  0.00    +0.000 C 
ATOM     10  O   UNL     1       9.141  -0.870  26.403  0.00  0.00    +0.000 OA
ATOM     11  C   UNL     1       7.105   0.284  26.827  0.00  0.00    +0.000 A 
ATOM     12  C   UNL     1       7.511   1.624  26.777  0.00  0.00    +0.000 A 
ATOM     13  C   UNL     1       6.839   2.555  27.546  0.00  0.00    +0.000 A 
ATOM     14  C   UNL     1       5.828   2.151  28.402  0.00  0.00    +0.000 A 
ATOM     15  C   UNL     1       5.390   0.823  28.408  0.00  0.00    +0.000 A 
ATOM     16  C   UNL     1       5.975  -0.133  27.558  0.00  0.00    +0.000 A 
ATOM     17  C   UNL     1       5.298  -1.522  27.387  0.00  0.00    +0.000 C 
ATOM     18  C   UNL     1       4.335  -1.462  26.197  0.00  0.00    +0.000 C 
ATOM     19  C   UNL     1       3.276  -0.638  26.216  0.00  0.00    +0.000 C 
ATOM     20  C   UNL     1       2.820  -0.129  27.542  0.00  0.00    +0.000 C 
ATOM     21  O   UNL     1       1.831   0.621  27.526  0.00  0.00    +0.000 OA
ATOM     22  C   UNL     1       3.555  -0.569  28.858  0.00  0.00    +0.000 C 
ATOM     23  C   UNL     1       4.489  -1.802  28.667  0.00  0.00    +0.000 C 
ATOM     24  O   UNL     1       4.367   0.529  29.276  0.00  0.00    +0.000 OA
ATOM     25  C   UNL     1       3.863  -2.691  25.504  0.00  0.00    +0.000 C 
ATOM     26  O   UNL     1       3.135  -3.413  26.183  0.00  0.00    +0.000 OA
ATOM     27  O   UNL     1       4.165  -2.962  24.198  0.00  0.00    +0.000 OA
ATOM     28  O   UNL     1       6.082  -3.903  25.653  0.00  0.00    +0.000 OA
ATOM     29  C   UNL     1       6.681  -5.047  26.021  0.00  0.00    +0.000 C 
ATOM     30  O   UNL     1       7.857  -5.311  25.871  0.00  0.00    +0.000 OA
ATOM     31  C   UNL     1       5.727  -5.804  26.844  0.00  0.00    +0.000 A 
ATOM     32  C   UNL     1       6.192  -5.837  28.194  0.00  0.00    +0.000 A 
ATOM     33  C   UNL     1       5.448  -6.460  29.169  0.00  0.00    +0.000 A 
ATOM     34  C   UNL     1       4.276  -7.079  28.805  0.00  0.00    +0.000 A 
ATOM     35  C   UNL     1       3.825  -7.053  27.473  0.00  0.00    +0.000 A 
ATOM     36  C   UNL     1       4.494  -6.372  26.413  0.00  0.00    +0.000 A 
ATOM     37  C   UNL     1       3.797  -6.283  25.035  0.00  0.00    +0.000 A 
ATOM     38  C   UNL     1       2.410  -5.938  24.947  0.00  0.00    +0.000 A 
ATOM     39  C   UNL     1       1.694  -5.920  23.741  0.00  0.00    +0.000 A 
ATOM     40  C   UNL     1       2.244  -6.415  22.584  0.00  0.00    +0.000 A 
ATOM     41  C   UNL     1       3.537  -6.876  22.607  0.00  0.00    +0.000 A 
ATOM     42  C   UNL     1       4.345  -6.620  23.753  0.00  0.00    +0.000 A 
ATOM     43  C   UNL     1       5.619  -6.069  23.224  0.00  0.00    +0.000 C 
ATOM     44  O   UNL     1       6.752  -6.470  23.397  0.00  0.00    +0.000 OA
ATOM     45  O   UNL     1       5.209  -5.001  22.462  0.00  0.00    +0.000 OA
ENDROOT
BRANCH  14  46
ATOM     46  O   UNL     1       5.217   3.071  29.205  0.00  0.00    +0.000 OA
ATOM     47  H   UNL     1       5.008   2.596  30.031  0.00  0.00    +0.000 HD
ENDBRANCH  14  46
BRANCH  23  48
ATOM     48  O   UNL     1       5.438  -1.953  29.741  0.00  0.00    +0.000 OA
ATOM     49  H   UNL     1       5.055  -1.503  30.521  0.00  0.00    +0.000 HD
ENDBRANCH  23  48
BRANCH  23  50
ATOM     50  O   UNL     1       3.736  -3.013  28.715  0.00  0.00    +0.000 OA
ATOM     51  H   UNL     1       4.213  -3.705  29.214  0.00  0.00    +0.000 HD
ENDBRANCH  23  50
BRANCH  22  52
ATOM     52  O   UNL     1       2.629  -0.879  29.903  0.00  0.00    +0.000 OA
ATOM     53  H   UNL     1       1.765  -1.022  29.469  0.00  0.00    +0.000 HD
ENDBRANCH  22  52
BRANCH  33  54
ATOM     54  O   UNL     1       5.818  -6.484  30.482  0.00  0.00    +0.000 OA
ATOM     55  H   UNL     1       6.643  -6.997  30.571  0.00  0.00    +0.000 HD
ENDBRANCH  33  54
BRANCH  13  56
ATOM     56  O   UNL     1       7.149   3.883  27.496  0.00  0.00    +0.000 OA
ATOM     57  H   UNL     1       7.346   4.125  26.572  0.00  0.00    +0.000 HD
ENDBRANCH  13  56
BRANCH  40  58
ATOM     58  O   UNL     1       1.592  -6.309  21.394  0.00  0.00    +0.000 OA
ATOM     59  H   UNL     1       1.983  -7.013  20.837  0.00  0.00    +0.000 HD
ENDBRANCH  40  58
BRANCH  39  60
ATOM     60  O   UNL     1       0.445  -5.357  23.684  0.00  0.00    +0.000 OA
ATOM     61  H   UNL     1       0.552  -4.527  24.198  0.00  0.00    +0.000 HD
ENDBRANCH  39  60
BRANCH  38  62
ATOM     62  O   UNL     1       1.623  -5.508  25.999  0.00  0.00    +0.000 OA
ATOM     63  H   UNL     1       1.933  -4.630  26.274  0.00  0.00    +0.000 HD
ENDBRANCH  38  62
BRANCH  35  64
ATOM     64  O   UNL     1       2.630  -7.701  27.252  0.00  0.00    +0.000 OA
ATOM     65  H   UNL     1       2.292  -7.349  26.400  0.00  0.00    +0.000 HD
ENDBRANCH  35  64
BRANCH  34  66
ATOM     66  O   UNL     1       3.507  -7.699  29.755  0.00  0.00    +0.000 OA
ATOM     67  H   UNL     1       3.175  -8.510  29.313  0.00  0.00    +0.000 HD
ENDBRANCH  34  66
BRANCH   6  68
ATOM     68  O   UNL     1       8.964  -0.876  23.069  0.00  0.00    +0.000 OA
BRANCH  68  69
ATOM     69  C   UNL     1       8.749  -0.038  22.027  0.00  0.00    +0.000 C 
ATOM     70  O   UNL     1       9.167  -0.204  20.892  0.00  0.00    +0.000 OA
BRANCH  69  71
ATOM     71  C   UNL     1       7.993   1.168  22.458  0.00  0.00    +0.000 A 
ATOM     72  C   UNL     1       8.690   2.387  22.529  0.00  0.00    +0.000 A 
ATOM     73  C   UNL     1       8.037   3.524  22.994  0.00  0.00    +0.000 A 
ATOM     74  C   UNL     1       6.712   3.448  23.406  0.00  0.00    +0.000 A 
ATOM     75  C   UNL     1       6.027   2.241  23.349  0.00  0.00    +0.000 A 
ATOM     76  C   UNL     1       6.649   1.098  22.864  0.00  0.00    +0.000 A 
BRANCH  75  77
ATOM     77  O   UNL     1       4.742   2.167  23.805  0.00  0.00    +0.000 OA
ATOM     78  H   UNL     1       4.240   2.762  23.208  0.00  0.00    +0.000 HD
ENDBRANCH  75  77
BRANCH  74  79
ATOM     79  O   UNL     1       6.069   4.551  23.896  0.00  0.00    +0.000 OA
ATOM     80  H   UNL     1       5.874   5.091  23.100  0.00  0.00    +0.000 HD
ENDBRANCH  74  79
BRANCH  73  81
ATOM     81  O   UNL     1       8.662   4.735  23.083  0.00  0.00    +0.000 OA
ATOM     82  H   UNL     1       9.090   4.797  23.956  0.00  0.00    +0.000 HD
ENDBRANCH  73  81
ENDBRANCH  69  71
ENDBRANCH  68  69
ENDBRANCH   6  68
TORSDOF 17
ENDMDL
MODEL 6
REMARK VINA RESULT:      -4.9      2.500      6.642
REMARK  Name = 
REMARK  17 active torsions:
REMARK  status: ('A' for Active; 'I' for Inactive)
REMARK    1  A    between atoms: C_6  and  O_8
REMARK    2  A    between atoms: O_8  and  C_9
REMARK    3  A    between atoms: C_9  and  C_11
REMARK    4  A    between atoms: C_13  and  O_19
REMARK    5  A    between atoms: C_14  and  O_18
REMARK    6  A    between atoms: C_15  and  O_17
REMARK    7  A    between atoms: C_25  and  O_44
REMARK    8  A    between atoms: C_26  and  O_43
REMARK    9  A    between atoms: C_34  and  O_39
REMARK   10  A    between atoms: C_35  and  O_36
REMARK   11  A    between atoms: C_35  and  O_37
REMARK   12  A    between atoms: C_50  and  O_68
REMARK   13  A    between atoms: C_51  and  O_67
REMARK   14  A    between atoms: C_52  and  O_66
REMARK   15  A    between atoms: C_55  and  O_65
REMARK   16  A    between atoms: C_56  and  O_64
REMARK   17  A    between atoms: C_57  and  O_63
REMARK                            x       y       z     vdW  Elec       q    Type
REMARK                         _______ _______ _______ _____ _____    ______ ____
ROOT
ATOM      1  C   UNL     1       0.443   1.871  27.015  0.00  0.00    +0.000 C 
ATOM      2  C   UNL     1       1.185   1.209  25.813  0.00  0.00    +0.000 C 
ATOM      3  C   UNL     1       2.707   1.372  25.796  0.00  0.00    +0.000 C 
ATOM      4  C   UNL     1       3.120   0.811  27.169  0.00  0.00    +0.000 C 
ATOM      5  C   UNL     1       3.109  -0.684  27.017  0.00  0.00    +0.000 C 
ATOM      6  C   UNL     1       1.633  -1.088  26.684  0.00  0.00    +0.000 C 
ATOM      7  O   UNL     1       0.943  -0.223  25.729  0.00  0.00    +0.000 OA
ATOM      8  O   UNL     1       3.976  -0.929  25.897  0.00  0.00    +0.000 OA
ATOM      9  C   UNL     1       4.852  -1.938  26.001  0.00  0.00    +0.000 C 
ATOM     10  O   UNL     1       4.897  -2.815  26.835  0.00  0.00    +0.000 OA
ATOM     11  C   UNL     1       5.776  -1.782  24.881  0.00  0.00    +0.000 A 
ATOM     12  C   UNL     1       5.814  -2.851  23.976  0.00  0.00    +0.000 A 
ATOM     13  C   UNL     1       6.783  -2.858  22.991  0.00  0.00    +0.000 A 
ATOM     14  C   UNL     1       7.740  -1.858  22.950  0.00  0.00    +0.000 A 
ATOM     15  C   UNL     1       7.666  -0.766  23.819  0.00  0.00    +0.000 A 
ATOM     16  C   UNL     1       6.629  -0.666  24.765  0.00  0.00    +0.000 A 
ATOM     17  C   UNL     1       6.413   0.671  25.527  0.00  0.00    +0.000 C 
ATOM     18  C   UNL     1       5.410   1.530  24.749  0.00  0.00    +0.000 C 
ATOM     19  C   UNL     1       5.695   1.959  23.510  0.00  0.00    +0.000 C 
ATOM     20  C   UNL     1       7.127   1.961  23.092  0.00  0.00    +0.000 C 
ATOM     21  O   UNL     1       7.358   2.377  21.945  0.00  0.00    +0.000 OA
ATOM     22  C   UNL     1       8.247   1.492  24.087  0.00  0.00    +0.000 C 
ATOM     23  C   UNL     1       7.767   1.403  25.568  0.00  0.00    +0.000 C 
ATOM     24  O   UNL     1       8.649   0.183  23.683  0.00  0.00    +0.000 OA
ATOM     25  C   UNL     1       4.667   2.648  25.391  0.00  0.00    +0.000 C 
ATOM     26  O   UNL     1       5.369   3.599  25.730  0.00  0.00    +0.000 OA
ATOM     27  O   UNL     1       3.308   2.642  25.534  0.00  0.00    +0.000 OA
ATOM     28  O   UNL     1       4.314   1.451  27.595  0.00  0.00    +0.000 OA
ATOM     29  C   UNL     1       4.447   1.551  28.928  0.00  0.00    +0.000 C 
ATOM     30  O   UNL     1       4.078   0.727  29.739  0.00  0.00    +0.000 OA
ATOM     31  C   UNL     1       5.322   2.699  29.202  0.00  0.00    +0.000 A 
ATOM     32  C   UNL     1       6.565   2.229  29.724  0.00  0.00    +0.000 A 
ATOM     33  C   UNL     1       7.571   3.118  30.028  0.00  0.00    +0.000 A 
ATOM     34  C   UNL     1       7.334   4.460  29.854  0.00  0.00    +0.000 A 
ATOM     35  C   UNL     1       6.106   4.921  29.349  0.00  0.00    +0.000 A 
ATOM     36  C   UNL     1       5.035   4.070  28.943  0.00  0.00    +0.000 A 
ATOM     37  C   UNL     1       3.808   4.705  28.246  0.00  0.00    +0.000 A 
ATOM     38  C   UNL     1       3.988   5.679  27.212  0.00  0.00    +0.000 A 
ATOM     39  C   UNL     1       2.924   6.355  26.597  0.00  0.00    +0.000 A 
ATOM     40  C   UNL     1       1.645   6.254  27.085  0.00  0.00    +0.000 A 
ATOM     41  C   UNL     1       1.404   5.428  28.153  0.00  0.00    +0.000 A 
ATOM     42  C   UNL     1       2.425   4.528  28.579  0.00  0.00    +0.000 A 
ATOM     43  C   UNL     1       1.761   3.205  28.698  0.00  0.00    +0.000 C 
ATOM     44  O   UNL     1       1.701   2.467  29.661  0.00  0.00    +0.000 OA
ATOM     45  O   UNL     1       1.204   3.018  27.456  0.00  0.00    +0.000 OA
ENDROOT
BRANCH  14  46
ATOM     46  O   UNL     1       8.732  -1.913  22.012  0.00  0.00    +0.000 OA
ATOM     47  H   UNL     1       8.391  -1.416  21.245  0.00  0.00    +0.000 HD
ENDBRANCH  14  46
BRANCH  23  48
ATOM     48  O   UNL     1       8.648   0.614  26.392  0.00  0.00    +0.000 OA
ATOM     49  H   UNL     1       8.081   0.122  27.019  0.00  0.00    +0.000 HD
ENDBRANCH  23  48
BRANCH  23  50
ATOM     50  O   UNL     1       7.799   2.690  26.182  0.00  0.00    +0.000 OA
ATOM     51  H   UNL     1       7.638   2.626  27.144  0.00  0.00    +0.000 HD
ENDBRANCH  23  50
BRANCH  22  52
ATOM     52  O   UNL     1       9.387   2.355  24.047  0.00  0.00    +0.000 OA
ATOM     53  H   UNL     1       9.301   2.884  23.230  0.00  0.00    +0.000 HD
ENDBRANCH  22  52
BRANCH  33  54
ATOM     54  O   UNL     1       8.795   2.724  30.485  0.00  0.00    +0.000 OA
ATOM     55  H   UNL     1       9.035   3.267  31.259  0.00  0.00    +0.000 HD
ENDBRANCH  33  54
BRANCH  13  56
ATOM     56  O   UNL     1       6.835  -3.840  22.044  0.00  0.00    +0.000 OA
ATOM     57  H   UNL     1       7.042  -4.687  22.481  0.00  0.00    +0.000 HD
ENDBRANCH  13  56
BRANCH  40  58
ATOM     58  O   UNL     1       0.597   6.829  26.432  0.00  0.00    +0.000 OA
ATOM     59  H   UNL     1       0.653   6.477  25.520  0.00  0.00    +0.000 HD
ENDBRANCH  40  58
BRANCH  39  60
ATOM     60  O   UNL     1       3.136   7.092  25.459  0.00  0.00    +0.000 OA
ATOM     61  H   UNL     1       3.750   7.796  25.761  0.00  0.00    +0.000 HD
ENDBRANCH  39  60
BRANCH  38  62
ATOM     62  O   UNL     1       5.195   6.021  26.634  0.00  0.00    +0.000 OA
ATOM     63  H   UNL     1       5.817   5.287  26.768  0.00  0.00    +0.000 HD
ENDBRANCH  38  62
BRANCH  35  64
ATOM     64  O   UNL     1       6.010   6.289  29.214  0.00  0.00    +0.000 OA
ATOM     65  H   UNL     1       6.648   6.663  29.859  0.00  0.00    +0.000 HD
ENDBRANCH  35  64
BRANCH  34  66
ATOM     66  O   UNL     1       8.320   5.370  30.137  0.00  0.00    +0.000 OA
ATOM     67  H   UNL     1       8.097   5.705  31.032  0.00  0.00    +0.000 HD
ENDBRANCH  34  66
BRANCH   6  68
ATOM     68  O   UNL     1       1.658  -2.416  26.132  0.00  0.00    +0.000 OA
BRANCH  68  69
ATOM     69  C   UNL     1       1.428  -3.397  27.038  0.00  0.00    +0.000 C 
ATOM     70  O   UNL     1       1.044  -3.222  28.183  0.00  0.00    +0.000 OA
BRANCH  69  71
ATOM     71  C   UNL     1       1.779  -4.730  26.481  0.00  0.00    +0.000 A 
ATOM     72  C   UNL     1       1.431  -5.866  27.233  0.00  0.00    +0.000 A 
ATOM     73  C   UNL     1       1.803  -7.128  26.781  0.00  0.00    +0.000 A 
ATOM     74  C   UNL     1       2.533  -7.261  25.606  0.00  0.00    +0.000 A 
ATOM     75  C   UNL     1       2.888  -6.138  24.870  0.00  0.00    +0.000 A 
ATOM     76  C   UNL     1       2.506  -4.871  25.286  0.00  0.00    +0.000 A 
BRANCH  75  77
ATOM     77  O   UNL     1       3.649  -6.277  23.744  0.00  0.00    +0.000 OA
ATOM     78  H   UNL     1       4.557  -6.432  24.084  0.00  0.00    +0.000 HD
ENDBRANCH  75  77
BRANCH  74  79
ATOM     79  O   UNL     1       2.932  -8.494  25.168  0.00  0.00    +0.000 OA
ATOM     80  H   UNL     1       2.152  -9.069  25.320  0.00  0.00    +0.000 HD
ENDBRANCH  74  79
BRANCH  73  81
ATOM     81  O   UNL     1       1.491  -8.267  27.468  0.00  0.00    +0.000 OA
ATOM     82  H   UNL     1       2.161  -8.944  27.263  0.00  0.00    +0.000 HD
ENDBRANCH  73  81
ENDBRANCH  69  71
ENDBRANCH  68  69
ENDBRANCH   6  68
TORSDOF 17
ENDMDL
