MODEL 1
REMARK VINA RESULT:      -4.6      0.000      0.000
REMARK  Name = 
REMARK  3 active torsions:
REMARK  status: ('A' for Active; 'I' for Inactive)
REMARK    1  A    between atoms: C_1  and  C_2
REMARK    2  A    between atoms: C_5  and  C_8
REMARK    3  A    between atoms: C_8  and  C_10
REMARK                            x       y       z     vdW  Elec       q    Type
REMARK                         _______ _______ _______ _____ _____    ______ ____
ROOT
ATOM      1  C   UNL     1       9.556  -1.980  22.659  0.00  0.00    +0.000 C 
ATOM      2  C   UNL     1       9.828  -0.516  22.847  0.00  0.00    +0.000 C 
ATOM      3  C   UNL     1       9.733   0.371  21.840  0.00  0.00    +0.000 C 
ATOM      4  C   UNL     1      10.012   1.842  21.990  0.00  0.00    +0.000 C 
ATOM      5  C   UNL     1      10.715   2.231  23.313  0.00  0.00    +0.000 C 
ATOM      6  C   UNL     1      10.117   1.412  24.474  0.00  0.00    +0.000 C 
ATOM      7  C   UNL     1      10.207  -0.096  24.241  0.00  0.00    +0.000 C 
ENDROOT
BRANCH   5   8
ATOM      8  C   UNL     1      10.693   3.748  23.539  0.00  0.00    +0.000 C 
ATOM      9  C   UNL     1       9.612   4.447  23.936  0.00  0.00    +0.000 C 
ATOM     10  C   UNL     1      11.983   4.499  23.327  0.00  0.00    +0.000 C 
ENDBRANCH   5   8
TORSDOF 1
ENDMDL
MODEL 2
REMARK VINA RESULT:      -4.5      0.805      4.885
REMARK  Name = 
REMARK  3 active torsions:
REMARK  status: ('A' for Active; 'I' for Inactive)
REMARK    1  A    between atoms: C_1  and  C_2
REMARK    2  A    between atoms: C_5  and  C_8
REMARK    3  A    between atoms: C_8  and  C_10
REMARK                            x       y       z     vdW  Elec       q    Type
REMARK                         _______ _______ _______ _____ _____    ______ ____
ROOT
ATOM      1  C   UNL     1      10.921   3.614  23.339  0.00  0.00    +0.000 C 
ATOM      2  C   UNL     1      10.521   2.167  23.344  0.00  0.00    +0.000 C 
ATOM      3  C   UNL     1      10.546   1.414  24.458  0.00  0.00    +0.000 C 
ATOM      4  C   UNL     1      10.166  -0.041  24.496  0.00  0.00    +0.000 C 
ATOM      5  C   UNL     1      10.032  -0.707  23.105  0.00  0.00    +0.000 C 
ATOM      6  C   UNL     1       9.344   0.271  22.131  0.00  0.00    +0.000 C 
ATOM      7  C   UNL     1      10.078   1.608  22.019  0.00  0.00    +0.000 C 
ENDROOT
BRANCH   5   8
ATOM      8  C   UNL     1       9.353  -2.078  23.199  0.00  0.00    +0.000 C 
ATOM      9  C   UNL     1       9.692  -3.043  24.077  0.00  0.00    +0.000 C 
ATOM     10  C   UNL     1       8.207  -2.349  22.257  0.00  0.00    +0.000 C 
ENDBRANCH   5   8
TORSDOF 1
ENDMDL
MODEL 3
REMARK VINA RESULT:      -4.4      0.948      4.641
REMARK  Name = 
REMARK  3 active torsions:
REMARK  status: ('A' for Active; 'I' for Inactive)
REMARK    1  A    between atoms: C_1  and  C_2
REMARK    2  A    between atoms: C_5  and  C_8
REMARK    3  A    between atoms: C_8  and  C_10
REMARK                            x       y       z     vdW  Elec       q    Type
REMARK                         _______ _______ _______ _____ _____    ______ ____
ROOT
ATOM      1  C   UNL     1      10.950   3.401  23.286  0.00  0.00    +0.000 C 
ATOM      2  C   UNL     1      10.408   2.002  23.225  0.00  0.00    +0.000 C 
ATOM      3  C   UNL     1       9.953   1.454  22.084  0.00  0.00    +0.000 C 
ATOM      4  C   UNL     1       9.391   0.061  21.990  0.00  0.00    +0.000 C 
ATOM      5  C   UNL     1       9.084  -0.602  23.354  0.00  0.00    +0.000 C 
ATOM      6  C   UNL     1      10.207  -0.263  24.355  0.00  0.00    +0.000 C 
ATOM      7  C   UNL     1      10.414   1.242  24.524  0.00  0.00    +0.000 C 
ENDROOT
BRANCH   5   8
ATOM      8  C   UNL     1       8.812  -2.104  23.203  0.00  0.00    +0.000 C 
ATOM      9  C   UNL     1       7.993  -2.646  22.281  0.00  0.00    +0.000 C 
ATOM     10  C   UNL     1       9.539  -3.037  24.139  0.00  0.00    +0.000 C 
ENDBRANCH   5   8
TORSDOF 1
ENDMDL
MODEL 4
REMARK VINA RESULT:      -4.3      2.059      3.414
REMARK  Name = 
REMARK  3 active torsions:
REMARK  status: ('A' for Active; 'I' for Inactive)
REMARK    1  A    between atoms: C_1  and  C_2
REMARK    2  A    between atoms: C_5  and  C_8
REMARK    3  A    between atoms: C_8  and  C_10
REMARK                            x       y       z     vdW  Elec       q    Type
REMARK                         _______ _______ _______ _____ _____    ______ ____
ROOT
ATOM      1  C   UNL     1       7.730  -4.841  23.514  0.00  0.00    +0.000 C 
ATOM      2  C   UNL     1       8.326  -3.472  23.361  0.00  0.00    +0.000 C 
ATOM      3  C   UNL     1       7.946  -2.624  22.389  0.00  0.00    +0.000 C 
ATOM      4  C   UNL     1       8.532  -1.251  22.197  0.00  0.00    +0.000 C 
ATOM      5  C   UNL     1       9.824  -0.985  23.007  0.00  0.00    +0.000 C 
ATOM      6  C   UNL     1       9.687  -1.604  24.413  0.00  0.00    +0.000 C 
ATOM      7  C   UNL     1       9.376  -3.099  24.373  0.00  0.00    +0.000 C 
ENDROOT
BRANCH   5   8
ATOM      8  C   UNL     1      10.192   0.503  23.010  0.00  0.00    +0.000 C 
ATOM      9  C   UNL     1       9.957   1.354  21.992  0.00  0.00    +0.000 C 
ATOM     10  C   UNL     1      10.838   1.054  24.257  0.00  0.00    +0.000 C 
ENDBRANCH   5   8
TORSDOF 1
ENDMDL
MODEL 5
REMARK VINA RESULT:      -4.1      2.386      3.960
REMARK  Name = 
REMARK  3 active torsions:
REMARK  status: ('A' for Active; 'I' for Inactive)
REMARK    1  A    between atoms: C_1  and  C_2
REMARK    2  A    between atoms: C_5  and  C_8
REMARK    3  A    between atoms: C_8  and  C_10
REMARK                            x       y       z     vdW  Elec       q    Type
REMARK                         _______ _______ _______ _____ _____    ______ ____
ROOT
ATOM      1  C   UNL     1       8.249  -4.534  26.381  0.00  0.00    +0.000 C 
ATOM      2  C   UNL     1       8.740  -3.325  25.638  0.00  0.00    +0.000 C 
ATOM      3  C   UNL     1       9.355  -3.412  24.445  0.00  0.00    +0.000 C 
ATOM      4  C   UNL     1       9.872  -2.224  23.680  0.00  0.00    +0.000 C 
ATOM      5  C   UNL     1       9.925  -0.909  24.495  0.00  0.00    +0.000 C 
ATOM      6  C   UNL     1       8.668  -0.800  25.380  0.00  0.00    +0.000 C 
ATOM      7  C   UNL     1       8.493  -2.001  26.309  0.00  0.00    +0.000 C 
ENDROOT
BRANCH   5   8
ATOM      8  C   UNL     1      10.162   0.307  23.590  0.00  0.00    +0.000 C 
ATOM      9  C   UNL     1      10.613   1.503  24.016  0.00  0.00    +0.000 C 
ATOM     10  C   UNL     1       9.895   0.135  22.116  0.00  0.00    +0.000 C 
ENDBRANCH   5   8
TORSDOF 1
ENDMDL
MODEL 6
REMARK VINA RESULT:      -4.0      2.489      5.998
REMARK  Name = 
REMARK  3 active torsions:
REMARK  status: ('A' for Active; 'I' for Inactive)
REMARK    1  A    between atoms: C_1  and  C_2
REMARK    2  A    between atoms: C_5  and  C_8
REMARK    3  A    between atoms: C_8  and  C_10
REMARK                            x       y       z     vdW  Elec       q    Type
REMARK                         _______ _______ _______ _____ _____    ______ ____
ROOT
ATOM      1  C   UNL     1      10.938   0.635  24.485  0.00  0.00    +0.000 C 
ATOM      2  C   UNL     1      10.026  -0.482  24.068  0.00  0.00    +0.000 C 
ATOM      3  C   UNL     1       9.116  -1.019  24.900  0.00  0.00    +0.000 C 
ATOM      4  C   UNL     1       8.196  -2.148  24.519  0.00  0.00    +0.000 C 
ATOM      5  C   UNL     1       8.570  -2.864  23.199  0.00  0.00    +0.000 C 
ATOM      6  C   UNL     1       9.023  -1.821  22.158  0.00  0.00    +0.000 C 
ATOM      7  C   UNL     1      10.187  -0.961  22.651  0.00  0.00    +0.000 C 
ENDROOT
BRANCH   5   8
ATOM      8  C   UNL     1       7.441  -3.782  22.716  0.00  0.00    +0.000 C 
ATOM      9  C   UNL     1       6.362  -3.370  22.022  0.00  0.00    +0.000 C 
ATOM     10  C   UNL     1       7.568  -5.254  23.017  0.00  0.00    +0.000 C 
ENDBRANCH   5   8
TORSDOF 1
ENDMDL
MODEL 7
REMARK VINA RESULT:      -4.0      2.303      3.876
REMARK  Name = 
REMARK  3 active torsions:
REMARK  status: ('A' for Active; 'I' for Inactive)
REMARK    1  A    between atoms: C_1  and  C_2
REMARK    2  A    between atoms: C_5  and  C_8
REMARK    3  A    between atoms: C_8  and  C_10
REMARK                            x       y       z     vdW  Elec       q    Type
REMARK                         _______ _______ _______ _____ _____    ______ ____
ROOT
ATOM      1  C   UNL     1       8.225  -3.978  26.563  0.00  0.00    +0.000 C 
ATOM      2  C   UNL     1       8.668  -2.775  25.782  0.00  0.00    +0.000 C 
ATOM      3  C   UNL     1       8.636  -1.531  26.292  0.00  0.00    +0.000 C 
ATOM      4  C   UNL     1       9.059  -0.302  25.533  0.00  0.00    +0.000 C 
ATOM      5  C   UNL     1       9.249  -0.520  24.013  0.00  0.00    +0.000 C 
ATOM      6  C   UNL     1       9.932  -1.880  23.769  0.00  0.00    +0.000 C 
ATOM      7  C   UNL     1       9.162  -3.047  24.387  0.00  0.00    +0.000 C 
ENDROOT
BRANCH   5   8
ATOM      8  C   UNL     1       9.965   0.667  23.358  0.00  0.00    +0.000 C 
ATOM      9  C   UNL     1      10.747   1.547  24.014  0.00  0.00    +0.000 C 
ATOM     10  C   UNL     1       9.802   0.839  21.869  0.00  0.00    +0.000 C 
ENDBRANCH   5   8
TORSDOF 1
ENDMDL
MODEL 8
REMARK VINA RESULT:      -4.0      0.997      1.922
REMARK  Name = 
REMARK  3 active torsions:
REMARK  status: ('A' for Active; 'I' for Inactive)
REMARK    1  A    between atoms: C_1  and  C_2
REMARK    2  A    between atoms: C_5  and  C_8
REMARK    3  A    between atoms: C_8  and  C_10
REMARK                            x       y       z     vdW  Elec       q    Type
REMARK                         _______ _______ _______ _____ _____    ______ ____
ROOT
ATOM      1  C   UNL     1      10.195  -2.297  23.555  0.00  0.00    +0.000 C 
ATOM      2  C   UNL     1       9.958  -0.815  23.551  0.00  0.00    +0.000 C 
ATOM      3  C   UNL     1       9.824  -0.102  24.684  0.00  0.00    +0.000 C 
ATOM      4  C   UNL     1       9.572   1.381  24.717  0.00  0.00    +0.000 C 
ATOM      5  C   UNL     1       9.170   1.995  23.354  0.00  0.00    +0.000 C 
ATOM      6  C   UNL     1      10.013   1.355  22.233  0.00  0.00    +0.000 C 
ATOM      7  C   UNL     1       9.888  -0.167  22.195  0.00  0.00    +0.000 C 
ENDROOT
BRANCH   5   8
ATOM      8  C   UNL     1       9.229   3.527  23.386  0.00  0.00    +0.000 C 
ATOM      9  C   UNL     1       8.170   4.339  23.196  0.00  0.00    +0.000 C 
ATOM     10  C   UNL     1      10.564   4.163  23.679  0.00  0.00    +0.000 C 
ENDBRANCH   5   8
TORSDOF 1
ENDMDL
MODEL 9
REMARK VINA RESULT:      -4.0      3.971      6.043
REMARK  Name = 
REMARK  3 active torsions:
REMARK  status: ('A' for Active; 'I' for Inactive)
REMARK    1  A    between atoms: C_1  and  C_2
REMARK    2  A    between atoms: C_5  and  C_8
REMARK    3  A    between atoms: C_8  and  C_10
REMARK                            x       y       z     vdW  Elec       q    Type
REMARK                         _______ _______ _______ _____ _____    ______ ____
ROOT
ATOM      1  C   UNL     1       6.145  -5.832  21.110  0.00  0.00    +0.000 C 
ATOM      2  C   UNL     1       6.794  -4.909  22.101  0.00  0.00    +0.000 C 
ATOM      3  C   UNL     1       7.608  -5.353  23.075  0.00  0.00    +0.000 C 
ATOM      4  C   UNL     1       8.263  -4.458  24.092  0.00  0.00    +0.000 C 
ATOM      5  C   UNL     1       7.700  -3.017  24.139  0.00  0.00    +0.000 C 
ATOM      6  C   UNL     1       7.428  -2.525  22.703  0.00  0.00    +0.000 C 
ATOM      7  C   UNL     1       6.484  -3.446  21.931  0.00  0.00    +0.000 C 
ENDROOT
BRANCH   5   8
ATOM      8  C   UNL     1       8.599  -2.086  24.960  0.00  0.00    +0.000 C 
ATOM      9  C   UNL     1       8.469  -1.864  26.283  0.00  0.00    +0.000 C 
ATOM     10  C   UNL     1       9.726  -1.394  24.235  0.00  0.00    +0.000 C 
ENDBRANCH   5   8
TORSDOF 1
ENDMDL
