MODEL 1
REMARK VINA RESULT:      -8.1      0.000      0.000
REMARK  Name = 
REMARK  11 active torsions:
REMARK  status: ('A' for Active; 'I' for Inactive)
REMARK    1  A    between atoms: C_2  and  O_41
REMARK    2  A    between atoms: C_3  and  C_13
REMARK    3  A    between atoms: C_7  and  O_12
REMARK    4  A    between atoms: C_9  and  O_11
REMARK    5  A    between atoms: C_17  and  O_35
REMARK    6  A    between atoms: C_18  and  O_34
REMARK    7  A    between atoms: C_20  and  C_21
REMARK    8  A    between atoms: C_22  and  O_33
REMARK    9  A    between atoms: C_25  and  O_32
REMARK   10  A    between atoms: C_27  and  O_31
REMARK   11  A    between atoms: C_38  and  O_40
REMARK                            x       y       z     vdW  Elec       q    Type
REMARK                         _______ _______ _______ _____ _____    ______ ____
ROOT
ATOM      1  C   UNL     1       8.045   0.227  24.648  0.00  0.00    +0.000 A 
ATOM      2  C   UNL     1       7.205  -0.829  24.692  0.00  0.00    +0.000 A 
ATOM      3  C   UNL     1       7.595  -2.144  25.277  0.00  0.00    +0.000 A 
ATOM      4  C   UNL     1       8.731  -2.880  24.849  0.00  0.00    +0.000 A 
ATOM      5  C   UNL     1       8.949  -4.179  25.337  0.00  0.00    +0.000 A 
ATOM      6  C   UNL     1       8.133  -4.686  26.340  0.00  0.00    +0.000 A 
ATOM      7  C   UNL     1       7.106  -3.925  26.873  0.00  0.00    +0.000 A 
ATOM      8  C   UNL     1       6.827  -2.643  26.358  0.00  0.00    +0.000 A 
ATOM      9  C   UNL     1       9.776  -2.294  23.966  0.00  0.00    +0.000 A 
ATOM     10  O   UNL     1      10.427  -3.014  23.211  0.00  0.00    +0.000 OA
ATOM     11  C   UNL     1      10.033  -0.807  23.964  0.00  0.00    +0.000 A 
ATOM     12  C   UNL     1       9.467  -0.051  24.919  0.00  0.00    +0.000 A 
ENDROOT
BRANCH   1  15
ATOM     13  C   UNL     1       6.911   3.150  22.420  0.00  0.00    +0.000 C 
ATOM     14  C   UNL     1       7.354   1.739  22.775  0.00  0.00    +0.000 C 
ATOM     15  C   UNL     1       7.671   1.664  24.289  0.00  0.00    +0.000 C 
ATOM     16  O   UNL     1       8.749   2.563  24.630  0.00  0.00    +0.000 OA
ATOM     17  C   UNL     1       8.637   3.839  24.127  0.00  0.00    +0.000 A 
ATOM     18  C   UNL     1       9.461   4.810  24.705  0.00  0.00    +0.000 A 
ATOM     19  C   UNL     1       9.416   6.122  24.234  0.00  0.00    +0.000 A 
ATOM     20  C   UNL     1       8.574   6.480  23.190  0.00  0.00    +0.000 A 
ATOM     21  C   UNL     1       7.767   5.507  22.611  0.00  0.00    +0.000 A 
ATOM     22  C   UNL     1       7.795   4.179  23.061  0.00  0.00    +0.000 A 
BRANCH  19  23
ATOM     23  O   UNL     1      10.191   7.107  24.773  0.00  0.00    +0.000 OA
ATOM     24  H   UNL     1      10.124   7.902  24.217  0.00  0.00    +0.000 HD
ENDBRANCH  19  23
BRANCH  21  25
ATOM     25  O   UNL     1       6.933   5.831  21.578  0.00  0.00    +0.000 OA
ATOM     26  H   UNL     1       7.449   6.280  20.887  0.00  0.00    +0.000 HD
ENDBRANCH  21  25
BRANCH  14  27
ATOM     27  O   UNL     1       6.338   0.821  22.360  0.00  0.00    +0.000 OA
ATOM     28  H   UNL     1       5.480   1.160  22.676  0.00  0.00    +0.000 HD
ENDBRANCH  14  27
ENDBRANCH   1  15
BRANCH   8  29
ATOM     29  C   UNL     1       5.785  -1.780  27.063  0.00  0.00    +0.000 C 
ATOM     30  C   UNL     1       4.608  -1.423  26.132  0.00  0.00    +0.000 C 
ATOM     31  C   UNL     1       3.583  -0.649  26.958  0.00  0.00    +0.000 C 
ATOM     32  C   UNL     1       4.239   0.415  27.791  0.00  0.00    +0.000 A 
ATOM     33  C   UNL     1       3.515   1.478  28.347  0.00  0.00    +0.000 A 
ATOM     34  C   UNL     1       4.143   2.462  29.108  0.00  0.00    +0.000 A 
ATOM     35  C   UNL     1       5.510   2.381  29.339  0.00  0.00    +0.000 A 
ATOM     36  C   UNL     1       6.252   1.332  28.815  0.00  0.00    +0.000 A 
ATOM     37  C   UNL     1       5.618   0.352  28.052  0.00  0.00    +0.000 A 
ATOM     38  O   UNL     1       6.449  -0.620  27.565  0.00  0.00    +0.000 OA
BRANCH  35  39
ATOM     39  O   UNL     1       6.166   3.315  30.084  0.00  0.00    +0.000 OA
ATOM     40  H   UNL     1       6.248   2.982  30.992  0.00  0.00    +0.000 HD
ENDBRANCH  35  39
BRANCH  33  41
ATOM     41  O   UNL     1       2.165   1.630  28.185  0.00  0.00    +0.000 OA
ATOM     42  H   UNL     1       1.934   1.605  27.244  0.00  0.00    +0.000 HD
ENDBRANCH  33  41
BRANCH  30  43
ATOM     43  O   UNL     1       3.974  -2.568  25.554  0.00  0.00    +0.000 OA
ATOM     44  H   UNL     1       4.503  -2.885  24.799  0.00  0.00    +0.000 HD
ENDBRANCH  30  43
ENDBRANCH   8  29
BRANCH   6  45
ATOM     45  O   UNL     1       8.365  -5.930  26.853  0.00  0.00    +0.000 OA
ATOM     46  H   UNL     1       8.995  -6.348  26.233  0.00  0.00    +0.000 HD
ENDBRANCH   6  45
BRANCH   5  47
ATOM     47  O   UNL     1       9.952  -5.006  24.893  0.00  0.00    +0.000 OA
ATOM     48  H   UNL     1      10.736  -4.869  25.471  0.00  0.00    +0.000 HD
ENDBRANCH   5  47
BRANCH  11  49
ATOM     49  O   UNL     1      10.336  -0.254  22.731  0.00  0.00    +0.000 OA
ATOM     50  H   UNL     1      10.404  -1.014  22.119  0.00  0.00    +0.000 HD
ENDBRANCH  11  49
TORSDOF 11
ENDMDL
MODEL 2
REMARK VINA RESULT:      -7.8      2.301      7.313
REMARK  Name = 
REMARK  11 active torsions:
REMARK  status: ('A' for Active; 'I' for Inactive)
REMARK    1  A    between atoms: C_2  and  O_41
REMARK    2  A    between atoms: C_3  and  C_13
REMARK    3  A    between atoms: C_7  and  O_12
REMARK    4  A    between atoms: C_9  and  O_11
REMARK    5  A    between atoms: C_17  and  O_35
REMARK    6  A    between atoms: C_18  and  O_34
REMARK    7  A    between atoms: C_20  and  C_21
REMARK    8  A    between atoms: C_22  and  O_33
REMARK    9  A    between atoms: C_25  and  O_32
REMARK   10  A    between atoms: C_27  and  O_31
REMARK   11  A    between atoms: C_38  and  O_40
REMARK                            x       y       z     vdW  Elec       q    Type
REMARK                         _______ _______ _______ _____ _____    ______ ____
ROOT
ATOM      1  C   UNL     1       7.382  -2.280  25.627  0.00  0.00    +0.000 A 
ATOM      2  C   UNL     1       8.032  -1.146  25.963  0.00  0.00    +0.000 A 
ATOM      3  C   UNL     1       8.378  -0.092  24.967  0.00  0.00    +0.000 A 
ATOM      4  C   UNL     1       9.133  -0.349  23.791  0.00  0.00    +0.000 A 
ATOM      5  C   UNL     1       9.552   0.718  22.980  0.00  0.00    +0.000 A 
ATOM      6  C   UNL     1       9.110   2.006  23.251  0.00  0.00    +0.000 A 
ATOM      7  C   UNL     1       8.254   2.256  24.311  0.00  0.00    +0.000 A 
ATOM      8  C   UNL     1       7.870   1.213  25.177  0.00  0.00    +0.000 A 
ATOM      9  C   UNL     1       9.424  -1.729  23.316  0.00  0.00    +0.000 A 
ATOM     10  O   UNL     1      10.441  -1.960  22.664  0.00  0.00    +0.000 OA
ATOM     11  C   UNL     1       8.492  -2.868  23.650  0.00  0.00    +0.000 A 
ATOM     12  C   UNL     1       7.294  -2.588  24.188  0.00  0.00    +0.000 A 
ENDROOT
BRANCH   1  15
ATOM     13  C   UNL     1       7.090  -5.583  27.577  0.00  0.00    +0.000 C 
ATOM     14  C   UNL     1       7.636  -4.589  26.563  0.00  0.00    +0.000 C 
ATOM     15  C   UNL     1       6.781  -3.298  26.595  0.00  0.00    +0.000 C 
ATOM     16  O   UNL     1       5.411  -3.583  26.238  0.00  0.00    +0.000 OA
ATOM     17  C   UNL     1       4.847  -4.664  26.875  0.00  0.00    +0.000 A 
ATOM     18  C   UNL     1       3.453  -4.763  26.818  0.00  0.00    +0.000 A 
ATOM     19  C   UNL     1       2.812  -5.842  27.424  0.00  0.00    +0.000 A 
ATOM     20  C   UNL     1       3.535  -6.831  28.076  0.00  0.00    +0.000 A 
ATOM     21  C   UNL     1       4.921  -6.735  28.118  0.00  0.00    +0.000 A 
ATOM     22  C   UNL     1       5.593  -5.663  27.513  0.00  0.00    +0.000 A 
BRANCH  19  23
ATOM     23  O   UNL     1       1.453  -5.975  27.405  0.00  0.00    +0.000 OA
ATOM     24  H   UNL     1       1.202  -6.553  26.665  0.00  0.00    +0.000 HD
ENDBRANCH  19  23
BRANCH  21  25
ATOM     25  O   UNL     1       5.659  -7.697  28.749  0.00  0.00    +0.000 OA
ATOM     26  H   UNL     1       5.807  -8.433  28.130  0.00  0.00    +0.000 HD
ENDBRANCH  21  25
BRANCH  14  27
ATOM     27  O   UNL     1       9.021  -4.362  26.843  0.00  0.00    +0.000 OA
ATOM     28  H   UNL     1       9.292  -4.987  27.541  0.00  0.00    +0.000 HD
ENDBRANCH  14  27
ENDBRANCH   1  15
BRANCH   8  29
ATOM     29  C   UNL     1       6.817   1.497  26.244  0.00  0.00    +0.000 C 
ATOM     30  C   UNL     1       5.404   1.630  25.639  0.00  0.00    +0.000 C 
ATOM     31  C   UNL     1       4.421   1.813  26.793  0.00  0.00    +0.000 C 
ATOM     32  C   UNL     1       4.918   2.828  27.783  0.00  0.00    +0.000 A 
ATOM     33  C   UNL     1       4.070   3.435  28.717  0.00  0.00    +0.000 A 
ATOM     34  C   UNL     1       4.548   4.384  29.620  0.00  0.00    +0.000 A 
ATOM     35  C   UNL     1       5.895   4.720  29.610  0.00  0.00    +0.000 A 
ATOM     36  C   UNL     1       6.764   4.125  28.708  0.00  0.00    +0.000 A 
ATOM     37  C   UNL     1       6.279   3.179  27.806  0.00  0.00    +0.000 A 
ATOM     38  O   UNL     1       7.217   2.675  26.946  0.00  0.00    +0.000 OA
BRANCH  35  39
ATOM     39  O   UNL     1       6.408   5.636  30.480  0.00  0.00    +0.000 OA
ATOM     40  H   UNL     1       6.998   5.175  31.099  0.00  0.00    +0.000 HD
ENDBRANCH  35  39
BRANCH  33  41
ATOM     41  O   UNL     1       2.734   3.155  28.809  0.00  0.00    +0.000 OA
ATOM     42  H   UNL     1       2.475   3.047  29.736  0.00  0.00    +0.000 HD
ENDBRANCH  33  41
BRANCH  30  43
ATOM     43  O   UNL     1       5.010   0.492  24.865  0.00  0.00    +0.000 OA
ATOM     44  H   UNL     1       5.438  -0.306  25.223  0.00  0.00    +0.000 HD
ENDBRANCH  30  43
ENDBRANCH   8  29
BRANCH   6  45
ATOM     45  O   UNL     1       9.475   3.044  22.441  0.00  0.00    +0.000 OA
ATOM     46  H   UNL     1       9.101   3.842  22.865  0.00  0.00    +0.000 HD
ENDBRANCH   6  45
BRANCH   5  47
ATOM     47  O   UNL     1      10.380   0.574  21.894  0.00  0.00    +0.000 OA
ATOM     48  H   UNL     1      10.875   1.417  21.776  0.00  0.00    +0.000 HD
ENDBRANCH   5  47
BRANCH  11  49
ATOM     49  O   UNL     1       9.103  -4.083  23.912  0.00  0.00    +0.000 OA
ATOM     50  H   UNL     1       9.061  -4.578  23.070  0.00  0.00    +0.000 HD
ENDBRANCH  11  49
TORSDOF 11
ENDMDL
MODEL 3
REMARK VINA RESULT:      -7.8      1.969      5.851
REMARK  Name = 
REMARK  11 active torsions:
REMARK  status: ('A' for Active; 'I' for Inactive)
REMARK    1  A    between atoms: C_2  and  O_41
REMARK    2  A    between atoms: C_3  and  C_13
REMARK    3  A    between atoms: C_7  and  O_12
REMARK    4  A    between atoms: C_9  and  O_11
REMARK    5  A    between atoms: C_17  and  O_35
REMARK    6  A    between atoms: C_18  and  O_34
REMARK    7  A    between atoms: C_20  and  C_21
REMARK    8  A    between atoms: C_22  and  O_33
REMARK    9  A    between atoms: C_25  and  O_32
REMARK   10  A    between atoms: C_27  and  O_31
REMARK   11  A    between atoms: C_38  and  O_40
REMARK                            x       y       z     vdW  Elec       q    Type
REMARK                         _______ _______ _______ _____ _____    ______ ____
ROOT
ATOM      1  C   UNL     1       5.402  -1.245  26.350  0.00  0.00    +0.000 A 
ATOM      2  C   UNL     1       6.740  -1.330  26.504  0.00  0.00    +0.000 A 
ATOM      3  C   UNL     1       7.502  -2.585  26.246  0.00  0.00    +0.000 A 
ATOM      4  C   UNL     1       7.205  -3.820  26.880  0.00  0.00    +0.000 A 
ATOM      5  C   UNL     1       8.060  -4.921  26.706  0.00  0.00    +0.000 A 
ATOM      6  C   UNL     1       9.114  -4.841  25.805  0.00  0.00    +0.000 A 
ATOM      7  C   UNL     1       9.334  -3.688  25.069  0.00  0.00    +0.000 A 
ATOM      8  C   UNL     1       8.529  -2.549  25.271  0.00  0.00    +0.000 A 
ATOM      9  C   UNL     1       5.954  -4.038  27.656  0.00  0.00    +0.000 A 
ATOM     10  O   UNL     1       5.931  -4.847  28.583  0.00  0.00    +0.000 OA
ATOM     11  C   UNL     1       4.706  -3.252  27.338  0.00  0.00    +0.000 A 
ATOM     12  C   UNL     1       4.673  -2.519  26.213  0.00  0.00    +0.000 A 
ENDROOT
BRANCH   1  15
ATOM     13  C   UNL     1       4.384   2.336  25.382  0.00  0.00    +0.000 C 
ATOM     14  C   UNL     1       5.242   1.081  25.436  0.00  0.00    +0.000 C 
ATOM     15  C   UNL     1       4.570   0.036  26.360  0.00  0.00    +0.000 C 
ATOM     16  O   UNL     1       4.451   0.547  27.707  0.00  0.00    +0.000 OA
ATOM     17  C   UNL     1       3.945   1.822  27.814  0.00  0.00    +0.000 A 
ATOM     18  C   UNL     1       3.501   2.211  29.081  0.00  0.00    +0.000 A 
ATOM     19  C   UNL     1       2.993   3.496  29.270  0.00  0.00    +0.000 A 
ATOM     20  C   UNL     1       2.929   4.402  28.221  0.00  0.00    +0.000 A 
ATOM     21  C   UNL     1       3.383   4.014  26.966  0.00  0.00    +0.000 A 
ATOM     22  C   UNL     1       3.904   2.730  26.748  0.00  0.00    +0.000 A 
BRANCH  19  23
ATOM     23  O   UNL     1       2.537   3.918  30.485  0.00  0.00    +0.000 OA
ATOM     24  H   UNL     1       2.956   3.386  31.183  0.00  0.00    +0.000 HD
ENDBRANCH  19  23
BRANCH  21  25
ATOM     25  O   UNL     1       3.337   4.888  25.916  0.00  0.00    +0.000 OA
ATOM     26  H   UNL     1       4.215   4.922  25.499  0.00  0.00    +0.000 HD
ENDBRANCH  21  25
BRANCH  14  27
ATOM     27  O   UNL     1       5.451   0.610  24.101  0.00  0.00    +0.000 OA
ATOM     28  H   UNL     1       5.854   1.334  23.587  0.00  0.00    +0.000 HD
ENDBRANCH  14  27
ENDBRANCH   1  15
BRANCH   8  29
ATOM     29  C   UNL     1       8.709  -1.351  24.344  0.00  0.00    +0.000 C 
ATOM     30  C   UNL     1      10.016  -1.444  23.530  0.00  0.00    +0.000 C 
ATOM     31  C   UNL     1      10.049  -0.256  22.570  0.00  0.00    +0.000 C 
ATOM     32  C   UNL     1       9.680   1.023  23.266  0.00  0.00    +0.000 A 
ATOM     33  C   UNL     1       9.977   2.280  22.722  0.00  0.00    +0.000 A 
ATOM     34  C   UNL     1       9.636   3.456  23.389  0.00  0.00    +0.000 A 
ATOM     35  C   UNL     1       8.973   3.385  24.606  0.00  0.00    +0.000 A 
ATOM     36  C   UNL     1       8.651   2.157  25.163  0.00  0.00    +0.000 A 
ATOM     37  C   UNL     1       8.996   0.983  24.493  0.00  0.00    +0.000 A 
ATOM     38  O   UNL     1       8.653  -0.170  25.145  0.00  0.00    +0.000 OA
BRANCH  35  39
ATOM     39  O   UNL     1       8.612   4.509  25.289  0.00  0.00    +0.000 OA
ATOM     40  H   UNL     1       9.412   4.907  25.669  0.00  0.00    +0.000 HD
ENDBRANCH  35  39
BRANCH  33  41
ATOM     41  O   UNL     1      10.615   2.445  21.523  0.00  0.00    +0.000 OA
ATOM     42  H   UNL     1      10.240   1.848  20.857  0.00  0.00    +0.000 HD
ENDBRANCH  33  41
BRANCH  30  43
ATOM     43  O   UNL     1      10.131  -2.656  22.778  0.00  0.00    +0.000 OA
ATOM     44  H   UNL     1       9.260  -2.891  22.409  0.00  0.00    +0.000 HD
ENDBRANCH  30  43
ENDBRANCH   8  29
BRANCH   6  45
ATOM     45  O   UNL     1       9.924  -5.921  25.595  0.00  0.00    +0.000 OA
ATOM     46  H   UNL     1       9.329  -6.625  25.267  0.00  0.00    +0.000 HD
ENDBRANCH   6  45
BRANCH   5  47
ATOM     47  O   UNL     1       7.916  -6.115  27.369  0.00  0.00    +0.000 OA
ATOM     48  H   UNL     1       8.756  -6.299  27.849  0.00  0.00    +0.000 HD
ENDBRANCH   5  47
BRANCH  11  49
ATOM     49  O   UNL     1       3.937  -2.884  28.428  0.00  0.00    +0.000 OA
ATOM     50  H   UNL     1       3.025  -3.153  28.201  0.00  0.00    +0.000 HD
ENDBRANCH  11  49
TORSDOF 11
ENDMDL
MODEL 4
REMARK VINA RESULT:      -7.5      2.394      6.832
REMARK  Name = 
REMARK  11 active torsions:
REMARK  status: ('A' for Active; 'I' for Inactive)
REMARK    1  A    between atoms: C_2  and  O_41
REMARK    2  A    between atoms: C_3  and  C_13
REMARK    3  A    between atoms: C_7  and  O_12
REMARK    4  A    between atoms: C_9  and  O_11
REMARK    5  A    between atoms: C_17  and  O_35
REMARK    6  A    between atoms: C_18  and  O_34
REMARK    7  A    between atoms: C_20  and  C_21
REMARK    8  A    between atoms: C_22  and  O_33
REMARK    9  A    between atoms: C_25  and  O_32
REMARK   10  A    between atoms: C_27  and  O_31
REMARK   11  A    between atoms: C_38  and  O_40
REMARK                            x       y       z     vdW  Elec       q    Type
REMARK                         _______ _______ _______ _____ _____    ______ ____
ROOT
ATOM      1  C   UNL     1       6.282   1.147  25.802  0.00  0.00    +0.000 A 
ATOM      2  C   UNL     1       6.125   0.298  24.765  0.00  0.00    +0.000 A 
ATOM      3  C   UNL     1       7.258  -0.126  23.893  0.00  0.00    +0.000 A 
ATOM      4  C   UNL     1       8.095   0.790  23.204  0.00  0.00    +0.000 A 
ATOM      5  C   UNL     1       9.043   0.317  22.281  0.00  0.00    +0.000 A 
ATOM      6  C   UNL     1       9.255  -1.049  22.149  0.00  0.00    +0.000 A 
ATOM      7  C   UNL     1       8.546  -1.957  22.920  0.00  0.00    +0.000 A 
ATOM      8  C   UNL     1       7.546  -1.510  23.807  0.00  0.00    +0.000 A 
ATOM      9  C   UNL     1       8.085   2.251  23.490  0.00  0.00    +0.000 A 
ATOM     10  O   UNL     1       8.380   3.058  22.610  0.00  0.00    +0.000 OA
ATOM     11  C   UNL     1       7.687   2.764  24.852  0.00  0.00    +0.000 A 
ATOM     12  C   UNL     1       7.557   1.887  25.861  0.00  0.00    +0.000 A 
ENDROOT
BRANCH   1  15
ATOM     13  C   UNL     1       3.565   0.423  28.426  0.00  0.00    +0.000 C 
ATOM     14  C   UNL     1       4.546   0.139  27.299  0.00  0.00    +0.000 C 
ATOM     15  C   UNL     1       5.247   1.456  26.882  0.00  0.00    +0.000 C 
ATOM     16  O   UNL     1       4.283   2.416  26.396  0.00  0.00    +0.000 OA
ATOM     17  C   UNL     1       3.165   2.581  27.180  0.00  0.00    +0.000 A 
ATOM     18  C   UNL     1       2.393   3.721  26.932  0.00  0.00    +0.000 A 
ATOM     19  C   UNL     1       1.235   3.945  27.675  0.00  0.00    +0.000 A 
ATOM     20  C   UNL     1       0.826   3.049  28.652  0.00  0.00    +0.000 A 
ATOM     21  C   UNL     1       1.590   1.911  28.886  0.00  0.00    +0.000 A 
ATOM     22  C   UNL     1       2.757   1.657  28.151  0.00  0.00    +0.000 A 
BRANCH  19  23
ATOM     23  O   UNL     1       0.456   5.048  27.477  0.00  0.00    +0.000 OA
ATOM     24  H   UNL     1      -0.045   5.231  28.290  0.00  0.00    +0.000 HD
ENDBRANCH  19  23
BRANCH  21  25
ATOM     25  O   UNL     1       1.207   1.009  29.838  0.00  0.00    +0.000 OA
ATOM     26  H   UNL     1       1.445   0.115  29.536  0.00  0.00    +0.000 HD
ENDBRANCH  21  25
BRANCH  14  27
ATOM     27  O   UNL     1       5.456  -0.879  27.728  0.00  0.00    +0.000 OA
ATOM     28  H   UNL     1       5.351  -1.644  27.132  0.00  0.00    +0.000 HD
ENDBRANCH  14  27
ENDBRANCH   1  15
BRANCH   8  29
ATOM     29  C   UNL     1       6.889  -2.523  24.740  0.00  0.00    +0.000 C 
ATOM     30  C   UNL     1       7.875  -3.050  25.803  0.00  0.00    +0.000 C 
ATOM     31  C   UNL     1       7.096  -3.974  26.738  0.00  0.00    +0.000 C 
ATOM     32  C   UNL     1       6.229  -4.930  25.970  0.00  0.00    +0.000 A 
ATOM     33  C   UNL     1       5.705  -6.092  26.550  0.00  0.00    +0.000 A 
ATOM     34  C   UNL     1       4.911  -6.973  25.817  0.00  0.00    +0.000 A 
ATOM     35  C   UNL     1       4.616  -6.687  24.491  0.00  0.00    +0.000 A 
ATOM     36  C   UNL     1       5.107  -5.537  23.892  0.00  0.00    +0.000 A 
ATOM     37  C   UNL     1       5.902  -4.660  24.630  0.00  0.00    +0.000 A 
ATOM     38  O   UNL     1       6.352  -3.571  23.933  0.00  0.00    +0.000 OA
BRANCH  35  39
ATOM     39  O   UNL     1       3.838  -7.515  23.738  0.00  0.00    +0.000 OA
ATOM     40  H   UNL     1       2.935  -7.497  24.094  0.00  0.00    +0.000 HD
ENDBRANCH  35  39
BRANCH  33  41
ATOM     41  O   UNL     1       5.931  -6.446  27.852  0.00  0.00    +0.000 OA
ATOM     42  H   UNL     1       6.814  -6.835  27.947  0.00  0.00    +0.000 HD
ENDBRANCH  33  41
BRANCH  30  43
ATOM     43  O   UNL     1       8.485  -2.011  26.575  0.00  0.00    +0.000 OA
ATOM     44  H   UNL     1       8.955  -2.404  27.332  0.00  0.00    +0.000 HD
ENDBRANCH  30  43
ENDBRANCH   8  29
BRANCH   6  45
ATOM     45  O   UNL     1      10.205  -1.518  21.288  0.00  0.00    +0.000 OA
ATOM     46  H   UNL     1       9.790  -1.476  20.403  0.00  0.00    +0.000 HD
ENDBRANCH   6  45
BRANCH   5  47
ATOM     47  O   UNL     1       9.811   1.132  21.487  0.00  0.00    +0.000 OA
ATOM     48  H   UNL     1       9.218   1.564  20.831  0.00  0.00    +0.000 HD
ENDBRANCH   5  47
BRANCH  11  49
ATOM     49  O   UNL     1       6.959   3.941  24.859  0.00  0.00    +0.000 OA
ATOM     50  H   UNL     1       6.054   3.681  25.123  0.00  0.00    +0.000 HD
ENDBRANCH  11  49
TORSDOF 11
ENDMDL
MODEL 5
REMARK VINA RESULT:      -7.5      2.840      7.296
REMARK  Name = 
REMARK  11 active torsions:
REMARK  status: ('A' for Active; 'I' for Inactive)
REMARK    1  A    between atoms: C_2  and  O_41
REMARK    2  A    between atoms: C_3  and  C_13
REMARK    3  A    between atoms: C_7  and  O_12
REMARK    4  A    between atoms: C_9  and  O_11
REMARK    5  A    between atoms: C_17  and  O_35
REMARK    6  A    between atoms: C_18  and  O_34
REMARK    7  A    between atoms: C_20  and  C_21
REMARK    8  A    between atoms: C_22  and  O_33
REMARK    9  A    between atoms: C_25  and  O_32
REMARK   10  A    between atoms: C_27  and  O_31
REMARK   11  A    between atoms: C_38  and  O_40
REMARK                            x       y       z     vdW  Elec       q    Type
REMARK                         _______ _______ _______ _____ _____    ______ ____
ROOT
ATOM      1  C   UNL     1       7.742  -0.001  24.550  0.00  0.00    +0.000 A 
ATOM      2  C   UNL     1       7.724   1.169  25.222  0.00  0.00    +0.000 A 
ATOM      3  C   UNL     1       8.220   2.445  24.631  0.00  0.00    +0.000 A 
ATOM      4  C   UNL     1       9.529   2.601  24.103  0.00  0.00    +0.000 A 
ATOM      5  C   UNL     1       9.977   3.871  23.704  0.00  0.00    +0.000 A 
ATOM      6  C   UNL     1       9.094   4.943  23.695  0.00  0.00    +0.000 A 
ATOM      7  C   UNL     1       7.770   4.778  24.071  0.00  0.00    +0.000 A 
ATOM      8  C   UNL     1       7.313   3.528  24.534  0.00  0.00    +0.000 A 
ATOM      9  C   UNL     1      10.433   1.445  23.856  0.00  0.00    +0.000 A 
ATOM     10  O   UNL     1      11.653   1.589  23.906  0.00  0.00    +0.000 OA
ATOM     11  C   UNL     1       9.867   0.076  23.567  0.00  0.00    +0.000 A 
ATOM     12  C   UNL     1       8.552  -0.042  23.319  0.00  0.00    +0.000 A 
ENDROOT
BRANCH   1  15
ATOM     13  C   UNL     1       7.308  -3.363  26.368  0.00  0.00    +0.000 C 
ATOM     14  C   UNL     1       8.010  -2.105  25.882  0.00  0.00    +0.000 C 
ATOM     15  C   UNL     1       7.052  -1.297  24.973  0.00  0.00    +0.000 C 
ATOM     16  O   UNL     1       6.677  -2.069  23.811  0.00  0.00    +0.000 OA
ATOM     17  C   UNL     1       6.280  -3.362  24.062  0.00  0.00    +0.000 A 
ATOM     18  C   UNL     1       5.598  -4.016  23.031  0.00  0.00    +0.000 A 
ATOM     19  C   UNL     1       5.181  -5.334  23.207  0.00  0.00    +0.000 A 
ATOM     20  C   UNL     1       5.442  -6.017  24.387  0.00  0.00    +0.000 A 
ATOM     21  C   UNL     1       6.132  -5.367  25.403  0.00  0.00    +0.000 A 
ATOM     22  C   UNL     1       6.567  -4.042  25.253  0.00  0.00    +0.000 A 
BRANCH  19  23
ATOM     23  O   UNL     1       4.502  -6.010  22.235  0.00  0.00    +0.000 OA
ATOM     24  H   UNL     1       5.099  -6.169  21.484  0.00  0.00    +0.000 HD
ENDBRANCH  19  23
BRANCH  21  25
ATOM     25  O   UNL     1       6.407  -6.017  26.574  0.00  0.00    +0.000 OA
ATOM     26  H   UNL     1       7.366  -5.975  26.737  0.00  0.00    +0.000 HD
ENDBRANCH  21  25
BRANCH  14  27
ATOM     27  O   UNL     1       8.473  -1.369  27.019  0.00  0.00    +0.000 OA
ATOM     28  H   UNL     1       9.417  -1.167  26.881  0.00  0.00    +0.000 HD
ENDBRANCH  14  27
ENDBRANCH   1  15
BRANCH   8  29
ATOM     29  C   UNL     1       5.822   3.348  24.802  0.00  0.00    +0.000 C 
ATOM     30  C   UNL     1       5.008   3.261  23.495  0.00  0.00    +0.000 C 
ATOM     31  C   UNL     1       3.554   2.983  23.872  0.00  0.00    +0.000 C 
ATOM     32  C   UNL     1       3.096   3.876  24.990  0.00  0.00    +0.000 A 
ATOM     33  C   UNL     1       1.739   4.077  25.275  0.00  0.00    +0.000 A 
ATOM     34  C   UNL     1       1.334   4.919  26.309  0.00  0.00    +0.000 A 
ATOM     35  C   UNL     1       2.291   5.557  27.088  0.00  0.00    +0.000 A 
ATOM     36  C   UNL     1       3.642   5.366  26.841  0.00  0.00    +0.000 A 
ATOM     37  C   UNL     1       4.041   4.524  25.803  0.00  0.00    +0.000 A 
ATOM     38  O   UNL     1       5.396   4.429  25.633  0.00  0.00    +0.000 OA
BRANCH  35  39
ATOM     39  O   UNL     1       1.941   6.382  28.115  0.00  0.00    +0.000 OA
ATOM     40  H   UNL     1       2.143   5.934  28.952  0.00  0.00    +0.000 HD
ENDBRANCH  35  39
BRANCH  33  41
ATOM     41  O   UNL     1       0.730   3.480  24.571  0.00  0.00    +0.000 OA
ATOM     42  H   UNL     1       0.592   3.936  23.727  0.00  0.00    +0.000 HD
ENDBRANCH  33  41
BRANCH  30  43
ATOM     43  O   UNL     1       5.465   2.233  22.610  0.00  0.00    +0.000 OA
ATOM     44  H   UNL     1       6.436   2.167  22.665  0.00  0.00    +0.000 HD
ENDBRANCH  30  43
ENDBRANCH   8  29
BRANCH   6  45
ATOM     45  O   UNL     1       9.507   6.172  23.266  0.00  0.00    +0.000 OA
ATOM     46  H   UNL     1      10.451   6.226  23.518  0.00  0.00    +0.000 HD
ENDBRANCH   6  45
BRANCH   5  47
ATOM     47  O   UNL     1      11.260   4.136  23.293  0.00  0.00    +0.000 OA
ATOM     48  H   UNL     1      11.720   4.611  24.022  0.00  0.00    +0.000 HD
ENDBRANCH   5  47
BRANCH  11  49
ATOM     49  O   UNL     1      10.568  -0.988  24.110  0.00  0.00    +0.000 OA
ATOM     50  H   UNL     1      10.928  -1.475  23.343  0.00  0.00    +0.000 HD
ENDBRANCH  11  49
TORSDOF 11
ENDMDL
MODEL 6
REMARK VINA RESULT:      -7.4      1.847      8.541
REMARK  Name = 
REMARK  11 active torsions:
REMARK  status: ('A' for Active; 'I' for Inactive)
REMARK    1  A    between atoms: C_2  and  O_41
REMARK    2  A    between atoms: C_3  and  C_13
REMARK    3  A    between atoms: C_7  and  O_12
REMARK    4  A    between atoms: C_9  and  O_11
REMARK    5  A    between atoms: C_17  and  O_35
REMARK    6  A    between atoms: C_18  and  O_34
REMARK    7  A    between atoms: C_20  and  C_21
REMARK    8  A    between atoms: C_22  and  O_33
REMARK    9  A    between atoms: C_25  and  O_32
REMARK   10  A    between atoms: C_27  and  O_31
REMARK   11  A    between atoms: C_38  and  O_40
REMARK                            x       y       z     vdW  Elec       q    Type
REMARK                         _______ _______ _______ _____ _____    ______ ____
ROOT
ATOM      1  C   UNL     1       6.363   0.953  26.565  0.00  0.00    +0.000 A 
ATOM      2  C   UNL     1       6.398   1.978  25.689  0.00  0.00    +0.000 A 
ATOM      3  C   UNL     1       7.088   3.267  25.984  0.00  0.00    +0.000 A 
ATOM      4  C   UNL     1       6.798   4.061  27.125  0.00  0.00    +0.000 A 
ATOM      5  C   UNL     1       7.375   5.335  27.258  0.00  0.00    +0.000 A 
ATOM      6  C   UNL     1       8.335   5.756  26.346  0.00  0.00    +0.000 A 
ATOM      7  C   UNL     1       8.736   4.934  25.305  0.00  0.00    +0.000 A 
ATOM      8  C   UNL     1       8.127   3.678  25.114  0.00  0.00    +0.000 A 
ATOM      9  C   UNL     1       5.973   3.560  28.258  0.00  0.00    +0.000 A 
ATOM     10  O   UNL     1       5.317   4.343  28.942  0.00  0.00    +0.000 OA
ATOM     11  C   UNL     1       5.907   2.084  28.565  0.00  0.00    +0.000 A 
ATOM     12  C   UNL     1       6.768   1.256  27.950  0.00  0.00    +0.000 A 
ENDROOT
BRANCH   1  15
ATOM     13  C   UNL     1       4.026  -2.101  26.640  0.00  0.00    +0.000 C 
ATOM     14  C   UNL     1       4.540  -0.711  26.984  0.00  0.00    +0.000 C 
ATOM     15  C   UNL     1       5.893  -0.471  26.272  0.00  0.00    +0.000 C 
ATOM     16  O   UNL     1       6.881  -1.428  26.716  0.00  0.00    +0.000 OA
ATOM     17  C   UNL     1       6.466  -2.739  26.739  0.00  0.00    +0.000 A 
ATOM     18  C   UNL     1       7.470  -3.708  26.828  0.00  0.00    +0.000 A 
ATOM     19  C   UNL     1       7.124  -5.058  26.875  0.00  0.00    +0.000 A 
ATOM     20  C   UNL     1       5.795  -5.458  26.845  0.00  0.00    +0.000 A 
ATOM     21  C   UNL     1       4.801  -4.490  26.769  0.00  0.00    +0.000 A 
ATOM     22  C   UNL     1       5.120  -3.125  26.726  0.00  0.00    +0.000 A 
BRANCH  19  23
ATOM     23  O   UNL     1       8.068  -6.041  26.952  0.00  0.00    +0.000 OA
ATOM     24  H   UNL     1       8.777  -5.753  27.552  0.00  0.00    +0.000 HD
ENDBRANCH  19  23
BRANCH  21  25
ATOM     25  O   UNL     1       3.485  -4.856  26.744  0.00  0.00    +0.000 OA
ATOM     26  H   UNL     1       3.287  -5.370  27.546  0.00  0.00    +0.000 HD
ENDBRANCH  21  25
BRANCH  14  27
ATOM     27  O   UNL     1       3.535   0.248  26.636  0.00  0.00    +0.000 OA
ATOM     28  H   UNL     1       3.285   0.727  27.448  0.00  0.00    +0.000 HD
ENDBRANCH  14  27
ENDBRANCH   1  15
BRANCH   8  29
ATOM     29  C   UNL     1       8.693   2.744  24.048  0.00  0.00    +0.000 C 
ATOM     30  C   UNL     1       7.848   2.765  22.758  0.00  0.00    +0.000 C 
ATOM     31  C   UNL     1       8.552   1.880  21.730  0.00  0.00    +0.000 C 
ATOM     32  C   UNL     1       8.981   0.573  22.332  0.00  0.00    +0.000 A 
ATOM     33  C   UNL     1       9.312  -0.537  21.545  0.00  0.00    +0.000 A 
ATOM     34  C   UNL     1       9.697  -1.746  22.123  0.00  0.00    +0.000 A 
ATOM     35  C   UNL     1       9.775  -1.850  23.505  0.00  0.00    +0.000 A 
ATOM     36  C   UNL     1       9.469  -0.764  24.312  0.00  0.00    +0.000 A 
ATOM     37  C   UNL     1       9.082   0.442  23.728  0.00  0.00    +0.000 A 
ATOM     38  O   UNL     1       8.779   1.437  24.617  0.00  0.00    +0.000 OA
BRANCH  35  39
ATOM     39  O   UNL     1      10.155  -3.009  24.114  0.00  0.00    +0.000 OA
ATOM     40  H   UNL     1      10.809  -2.796  24.799  0.00  0.00    +0.000 HD
ENDBRANCH  35  39
BRANCH  33  41
ATOM     41  O   UNL     1       9.277  -0.522  20.177  0.00  0.00    +0.000 OA
ATOM     42  H   UNL     1      10.124  -0.824  19.815  0.00  0.00    +0.000 HD
ENDBRANCH  33  41
BRANCH  30  43
ATOM     43  O   UNL     1       7.682   4.077  22.210  0.00  0.00    +0.000 OA
ATOM     44  H   UNL     1       8.183   4.717  22.747  0.00  0.00    +0.000 HD
ENDBRANCH  30  43
ENDBRANCH   8  29
BRANCH   6  45
ATOM     45  O   UNL     1       8.935   6.974  26.492  0.00  0.00    +0.000 OA
ATOM     46  H   UNL     1       8.547   7.535  25.791  0.00  0.00    +0.000 HD
ENDBRANCH   6  45
BRANCH   5  47
ATOM     47  O   UNL     1       7.064   6.216  28.264  0.00  0.00    +0.000 OA
ATOM     48  H   UNL     1       6.964   7.110  27.864  0.00  0.00    +0.000 HD
ENDBRANCH   5  47
BRANCH  11  49
ATOM     49  O   UNL     1       4.674   1.615  28.986  0.00  0.00    +0.000 OA
ATOM     50  H   UNL     1       4.831   0.688  29.253  0.00  0.00    +0.000 HD
ENDBRANCH  11  49
TORSDOF 11
ENDMDL
MODEL 7
REMARK VINA RESULT:      -7.4      1.402      2.349
REMARK  Name = 
REMARK  11 active torsions:
REMARK  status: ('A' for Active; 'I' for Inactive)
REMARK    1  A    between atoms: C_2  and  O_41
REMARK    2  A    between atoms: C_3  and  C_13
REMARK    3  A    between atoms: C_7  and  O_12
REMARK    4  A    between atoms: C_9  and  O_11
REMARK    5  A    between atoms: C_17  and  O_35
REMARK    6  A    between atoms: C_18  and  O_34
REMARK    7  A    between atoms: C_20  and  C_21
REMARK    8  A    between atoms: C_22  and  O_33
REMARK    9  A    between atoms: C_25  and  O_32
REMARK   10  A    between atoms: C_27  and  O_31
REMARK   11  A    between atoms: C_38  and  O_40
REMARK                            x       y       z     vdW  Elec       q    Type
REMARK                         _______ _______ _______ _____ _____    ______ ____
ROOT
ATOM      1  C   UNL     1       8.174  -0.890  24.630  0.00  0.00    +0.000 A 
ATOM      2  C   UNL     1       7.055  -1.597  24.893  0.00  0.00    +0.000 A 
ATOM      3  C   UNL     1       7.044  -2.776  25.806  0.00  0.00    +0.000 A 
ATOM      4  C   UNL     1       7.892  -3.902  25.634  0.00  0.00    +0.000 A 
ATOM      5  C   UNL     1       7.719  -5.039  26.441  0.00  0.00    +0.000 A 
ATOM      6  C   UNL     1       6.815  -5.006  27.495  0.00  0.00    +0.000 A 
ATOM      7  C   UNL     1       6.082  -3.863  27.768  0.00  0.00    +0.000 A 
ATOM      8  C   UNL     1       6.191  -2.731  26.936  0.00  0.00    +0.000 A 
ATOM      9  C   UNL     1       9.040  -3.900  24.688  0.00  0.00    +0.000 A 
ATOM     10  O   UNL     1       9.421  -4.949  24.171  0.00  0.00    +0.000 OA
ATOM     11  C   UNL     1       9.736  -2.610  24.329  0.00  0.00    +0.000 A 
ATOM     12  C   UNL     1       9.452  -1.503  25.035  0.00  0.00    +0.000 A 
ENDROOT
BRANCH   1  15
ATOM     13  C   UNL     1       9.292   2.730  23.961  0.00  0.00    +0.000 C 
ATOM     14  C   UNL     1       9.155   1.413  24.710  0.00  0.00    +0.000 C 
ATOM     15  C   UNL     1       8.244   0.454  23.906  0.00  0.00    +0.000 C 
ATOM     16  O   UNL     1       6.921   1.013  23.754  0.00  0.00    +0.000 OA
ATOM     17  C   UNL     1       6.877   2.326  23.348  0.00  0.00    +0.000 A 
ATOM     18  C   UNL     1       5.647   2.789  22.868  0.00  0.00    +0.000 A 
ATOM     19  C   UNL     1       5.522   4.115  22.456  0.00  0.00    +0.000 A 
ATOM     20  C   UNL     1       6.596   4.991  22.524  0.00  0.00    +0.000 A 
ATOM     21  C   UNL     1       7.812   4.530  23.014  0.00  0.00    +0.000 A 
ATOM     22  C   UNL     1       7.966   3.202  23.440  0.00  0.00    +0.000 A 
BRANCH  19  23
ATOM     23  O   UNL     1       4.346   4.610  21.970  0.00  0.00    +0.000 OA
ATOM     24  H   UNL     1       3.607   4.186  22.438  0.00  0.00    +0.000 HD
ENDBRANCH  19  23
BRANCH  21  25
ATOM     25  O   UNL     1       8.885   5.372  23.097  0.00  0.00    +0.000 OA
ATOM     26  H   UNL     1       8.614   6.256  22.793  0.00  0.00    +0.000 HD
ENDBRANCH  21  25
BRANCH  14  27
ATOM     27  O   UNL     1      10.464   0.886  24.953  0.00  0.00    +0.000 OA
ATOM     28  H   UNL     1      11.100   1.415  24.437  0.00  0.00    +0.000 HD
ENDBRANCH  14  27
ENDBRANCH   1  15
BRANCH   8  29
ATOM     29  C   UNL     1       5.479  -1.447  27.349  0.00  0.00    +0.000 C 
ATOM     30  C   UNL     1       4.397  -1.035  26.329  0.00  0.00    +0.000 C 
ATOM     31  C   UNL     1       3.683   0.197  26.885  0.00  0.00    +0.000 C 
ATOM     32  C   UNL     1       4.662   1.212  27.401  0.00  0.00    +0.000 A 
ATOM     33  C   UNL     1       4.302   2.548  27.623  0.00  0.00    +0.000 A 
ATOM     34  C   UNL     1       5.227   3.479  28.092  0.00  0.00    +0.000 A 
ATOM     35  C   UNL     1       6.527   3.074  28.366  0.00  0.00    +0.000 A 
ATOM     36  C   UNL     1       6.910   1.755  28.172  0.00  0.00    +0.000 A 
ATOM     37  C   UNL     1       5.980   0.829  27.700  0.00  0.00    +0.000 A 
ATOM     38  O   UNL     1       6.472  -0.436  27.522  0.00  0.00    +0.000 OA
BRANCH  35  39
ATOM     39  O   UNL     1       7.463   3.947  28.834  0.00  0.00    +0.000 OA
ATOM     40  H   UNL     1       8.119   3.448  29.348  0.00  0.00    +0.000 HD
ENDBRANCH  35  39
BRANCH  33  41
ATOM     41  O   UNL     1       3.043   3.032  27.394  0.00  0.00    +0.000 OA
ATOM     42  H   UNL     1       2.529   3.037  28.216  0.00  0.00    +0.000 HD
ENDBRANCH  33  41
BRANCH  30  43
ATOM     43  O   UNL     1       3.432  -2.062  26.081  0.00  0.00    +0.000 OA
ATOM     44  H   UNL     1       2.913  -1.834  25.288  0.00  0.00    +0.000 HD
ENDBRANCH  30  43
ENDBRANCH   8  29
BRANCH   6  45
ATOM     45  O   UNL     1       6.672  -6.091  28.313  0.00  0.00    +0.000 OA
ATOM     46  H   UNL     1       6.631  -6.861  27.711  0.00  0.00    +0.000 HD
ENDBRANCH   6  45
BRANCH   5  47
ATOM     47  O   UNL     1       8.411  -6.212  26.269  0.00  0.00    +0.000 OA
ATOM     48  H   UNL     1       7.949  -6.915  26.781  0.00  0.00    +0.000 HD
ENDBRANCH   5  47
BRANCH  11  49
ATOM     49  O   UNL     1      10.158  -2.504  23.014  0.00  0.00    +0.000 OA
ATOM     50  H   UNL     1      10.790  -1.758  23.007  0.00  0.00    +0.000 HD
ENDBRANCH  11  49
TORSDOF 11
ENDMDL
MODEL 8
REMARK VINA RESULT:      -7.4      2.301      8.090
REMARK  Name = 
REMARK  11 active torsions:
REMARK  status: ('A' for Active; 'I' for Inactive)
REMARK    1  A    between atoms: C_2  and  O_41
REMARK    2  A    between atoms: C_3  and  C_13
REMARK    3  A    between atoms: C_7  and  O_12
REMARK    4  A    between atoms: C_9  and  O_11
REMARK    5  A    between atoms: C_17  and  O_35
REMARK    6  A    between atoms: C_18  and  O_34
REMARK    7  A    between atoms: C_20  and  C_21
REMARK    8  A    between atoms: C_22  and  O_33
REMARK    9  A    between atoms: C_25  and  O_32
REMARK   10  A    between atoms: C_27  and  O_31
REMARK   11  A    between atoms: C_38  and  O_40
REMARK                            x       y       z     vdW  Elec       q    Type
REMARK                         _______ _______ _______ _____ _____    ______ ____
ROOT
ATOM      1  C   UNL     1       5.857   0.032  24.646  0.00  0.00    +0.000 A 
ATOM      2  C   UNL     1       6.874  -0.052  23.764  0.00  0.00    +0.000 A 
ATOM      3  C   UNL     1       7.992   0.934  23.726  0.00  0.00    +0.000 A 
ATOM      4  C   UNL     1       7.792   2.332  23.583  0.00  0.00    +0.000 A 
ATOM      5  C   UNL     1       8.894   3.183  23.401  0.00  0.00    +0.000 A 
ATOM      6  C   UNL     1      10.183   2.675  23.502  0.00  0.00    +0.000 A 
ATOM      7  C   UNL     1      10.399   1.336  23.785  0.00  0.00    +0.000 A 
ATOM      8  C   UNL     1       9.310   0.450  23.910  0.00  0.00    +0.000 A 
ATOM      9  C   UNL     1       6.451   2.964  23.717  0.00  0.00    +0.000 A 
ATOM     10  O   UNL     1       6.192   4.005  23.114  0.00  0.00    +0.000 OA
ATOM     11  C   UNL     1       5.383   2.325  24.570  0.00  0.00    +0.000 A 
ATOM     12  C   UNL     1       5.722   1.306  25.377  0.00  0.00    +0.000 A 
ENDROOT
BRANCH   1  15
ATOM     13  C   UNL     1       3.722  -2.403  26.722  0.00  0.00    +0.000 C 
ATOM     14  C   UNL     1       4.816  -1.389  26.427  0.00  0.00    +0.000 C 
ATOM     15  C   UNL     1       4.804  -1.041  24.918  0.00  0.00    +0.000 C 
ATOM     16  O   UNL     1       5.068  -2.217  24.121  0.00  0.00    +0.000 OA
ATOM     17  C   UNL     1       4.344  -3.336  24.460  0.00  0.00    +0.000 A 
ATOM     18  C   UNL     1       4.316  -4.369  23.518  0.00  0.00    +0.000 A 
ATOM     19  C   UNL     1       3.619  -5.543  23.801  0.00  0.00    +0.000 A 
ATOM     20  C   UNL     1       2.957  -5.709  25.010  0.00  0.00    +0.000 A 
ATOM     21  C   UNL     1       2.999  -4.685  25.948  0.00  0.00    +0.000 A 
ATOM     22  C   UNL     1       3.697  -3.495  25.692  0.00  0.00    +0.000 A 
BRANCH  19  23
ATOM     23  O   UNL     1       3.553  -6.574  22.910  0.00  0.00    +0.000 OA
ATOM     24  H   UNL     1       3.361  -6.217  22.026  0.00  0.00    +0.000 HD
ENDBRANCH  19  23
BRANCH  21  25
ATOM     25  O   UNL     1       2.361  -4.824  27.149  0.00  0.00    +0.000 OA
ATOM     26  H   UNL     1       1.730  -4.092  27.255  0.00  0.00    +0.000 HD
ENDBRANCH  21  25
BRANCH  14  27
ATOM     27  O   UNL     1       4.628  -0.251  27.275  0.00  0.00    +0.000 OA
ATOM     28  H   UNL     1       5.486  -0.037  27.684  0.00  0.00    +0.000 HD
ENDBRANCH  14  27
ENDBRANCH   1  15
BRANCH   8  29
ATOM     29  C   UNL     1       9.580  -0.982  24.362  0.00  0.00    +0.000 C 
ATOM     30  C   UNL     1       9.770  -1.938  23.166  0.00  0.00    +0.000 C 
ATOM     31  C   UNL     1      10.130  -3.313  23.725  0.00  0.00    +0.000 C 
ATOM     32  C   UNL     1       9.229  -3.697  24.863  0.00  0.00    +0.000 A 
ATOM     33  C   UNL     1       9.109  -5.021  25.304  0.00  0.00    +0.000 A 
ATOM     34  C   UNL     1       8.258  -5.359  26.356  0.00  0.00    +0.000 A 
ATOM     35  C   UNL     1       7.529  -4.364  26.993  0.00  0.00    +0.000 A 
ATOM     36  C   UNL     1       7.638  -3.042  26.590  0.00  0.00    +0.000 A 
ATOM     37  C   UNL     1       8.489  -2.710  25.536  0.00  0.00    +0.000 A 
ATOM     38  O   UNL     1       8.500  -1.382  25.206  0.00  0.00    +0.000 OA
BRANCH  35  39
ATOM     39  O   UNL     1       6.691  -4.647  28.031  0.00  0.00    +0.000 OA
ATOM     40  H   UNL     1       5.802  -4.327  27.805  0.00  0.00    +0.000 HD
ENDBRANCH  35  39
BRANCH  33  41
ATOM     41  O   UNL     1       9.798  -6.062  24.745  0.00  0.00    +0.000 OA
ATOM     42  H   UNL     1       9.389  -6.326  23.907  0.00  0.00    +0.000 HD
ENDBRANCH  33  41
BRANCH  30  43
ATOM     43  O   UNL     1      10.797  -1.517  22.262  0.00  0.00    +0.000 OA
ATOM     44  H   UNL     1      10.732  -2.030  21.436  0.00  0.00    +0.000 HD
ENDBRANCH  30  43
ENDBRANCH   8  29
BRANCH   6  45
ATOM     45  O   UNL     1      11.262   3.502  23.372  0.00  0.00    +0.000 OA
ATOM     46  H   UNL     1      11.711   3.208  22.555  0.00  0.00    +0.000 HD
ENDBRANCH   6  45
BRANCH   5  47
ATOM     47  O   UNL     1       8.789   4.527  23.139  0.00  0.00    +0.000 OA
ATOM     48  H   UNL     1       9.698   4.884  23.013  0.00  0.00    +0.000 HD
ENDBRANCH   5  47
BRANCH  11  49
ATOM     49  O   UNL     1       4.091   2.423  24.083  0.00  0.00    +0.000 OA
ATOM     50  H   UNL     1       3.546   2.687  24.851  0.00  0.00    +0.000 HD
ENDBRANCH  11  49
TORSDOF 11
ENDMDL
MODEL 9
REMARK VINA RESULT:      -7.4      2.132      7.063
REMARK  Name = 
REMARK  11 active torsions:
REMARK  status: ('A' for Active; 'I' for Inactive)
REMARK    1  A    between atoms: C_2  and  O_41
REMARK    2  A    between atoms: C_3  and  C_13
REMARK    3  A    between atoms: C_7  and  O_12
REMARK    4  A    between atoms: C_9  and  O_11
REMARK    5  A    between atoms: C_17  and  O_35
REMARK    6  A    between atoms: C_18  and  O_34
REMARK    7  A    between atoms: C_20  and  C_21
REMARK    8  A    between atoms: C_22  and  O_33
REMARK    9  A    between atoms: C_25  and  O_32
REMARK   10  A    between atoms: C_27  and  O_31
REMARK   11  A    between atoms: C_38  and  O_40
REMARK                            x       y       z     vdW  Elec       q    Type
REMARK                         _______ _______ _______ _____ _____    ______ ____
ROOT
ATOM      1  C   UNL     1       8.039   0.240  24.296  0.00  0.00    +0.000 A 
ATOM      2  C   UNL     1       8.354   1.029  25.344  0.00  0.00    +0.000 A 
ATOM      3  C   UNL     1       8.299   2.518  25.277  0.00  0.00    +0.000 A 
ATOM      4  C   UNL     1       9.001   3.280  24.306  0.00  0.00    +0.000 A 
ATOM      5  C   UNL     1       9.027   4.681  24.397  0.00  0.00    +0.000 A 
ATOM      6  C   UNL     1       8.250   5.324  25.353  0.00  0.00    +0.000 A 
ATOM      7  C   UNL     1       7.445   4.602  26.219  0.00  0.00    +0.000 A 
ATOM      8  C   UNL     1       7.450   3.193  26.188  0.00  0.00    +0.000 A 
ATOM      9  C   UNL     1       9.644   2.658  23.116  0.00  0.00    +0.000 A 
ATOM     10  O   UNL     1      10.629   3.181  22.598  0.00  0.00    +0.000 OA
ATOM     11  C   UNL     1       9.114   1.365  22.545  0.00  0.00    +0.000 A 
ATOM     12  C   UNL     1       7.932   0.901  22.982  0.00  0.00    +0.000 A 
ENDROOT
BRANCH   1  15
ATOM     13  C   UNL     1       8.842  -3.464  23.642  0.00  0.00    +0.000 C 
ATOM     14  C   UNL     1       8.990  -1.953  23.551  0.00  0.00    +0.000 C 
ATOM     15  C   UNL     1       7.839  -1.274  24.333  0.00  0.00    +0.000 C 
ATOM     16  O   UNL     1       6.558  -1.626  23.764  0.00  0.00    +0.000 OA
ATOM     17  C   UNL     1       6.371  -2.964  23.510  0.00  0.00    +0.000 A 
ATOM     18  C   UNL     1       5.054  -3.378  23.288  0.00  0.00    +0.000 A 
ATOM     19  C   UNL     1       4.790  -4.718  23.006  0.00  0.00    +0.000 A 
ATOM     20  C   UNL     1       5.815  -5.650  22.929  0.00  0.00    +0.000 A 
ATOM     21  C   UNL     1       7.124  -5.231  23.137  0.00  0.00    +0.000 A 
ATOM     22  C   UNL     1       7.420  -3.889  23.418  0.00  0.00    +0.000 A 
BRANCH  19  23
ATOM     23  O   UNL     1       3.520  -5.172  22.794  0.00  0.00    +0.000 OA
ATOM     24  H   UNL     1       3.527  -6.144  22.797  0.00  0.00    +0.000 HD
ENDBRANCH  19  23
BRANCH  21  25
ATOM     25  O   UNL     1       8.154  -6.126  23.062  0.00  0.00    +0.000 OA
ATOM     26  H   UNL     1       8.867  -5.739  22.525  0.00  0.00    +0.000 HD
ENDBRANCH  21  25
BRANCH  14  27
ATOM     27  O   UNL     1      10.292  -1.590  24.025  0.00  0.00    +0.000 OA
ATOM     28  H   UNL     1      10.865  -1.455  23.248  0.00  0.00    +0.000 HD
ENDBRANCH  14  27
ENDBRANCH   1  15
BRANCH   8  29
ATOM     29  C   UNL     1       6.448   2.437  27.055  0.00  0.00    +0.000 C 
ATOM     30  C   UNL     1       7.069   1.984  28.392  0.00  0.00    +0.000 C 
ATOM     31  C   UNL     1       5.962   1.331  29.219  0.00  0.00    +0.000 C 
ATOM     32  C   UNL     1       5.156   0.369  28.394  0.00  0.00    +0.000 A 
ATOM     33  C   UNL     1       4.338  -0.608  28.977  0.00  0.00    +0.000 A 
ATOM     34  C   UNL     1       3.606  -1.500  28.195  0.00  0.00    +0.000 A 
ATOM     35  C   UNL     1       3.670  -1.409  26.811  0.00  0.00    +0.000 A 
ATOM     36  C   UNL     1       4.459  -0.444  26.204  0.00  0.00    +0.000 A 
ATOM     37  C   UNL     1       5.191   0.445  26.992  0.00  0.00    +0.000 A 
ATOM     38  O   UNL     1       5.952   1.339  26.289  0.00  0.00    +0.000 OA
BRANCH  35  39
ATOM     39  O   UNL     1       2.965  -2.255  26.007  0.00  0.00    +0.000 OA
ATOM     40  H   UNL     1       2.233  -1.759  25.606  0.00  0.00    +0.000 HD
ENDBRANCH  35  39
BRANCH  33  41
ATOM     41  O   UNL     1       4.203  -0.761  30.330  0.00  0.00    +0.000 OA
ATOM     42  H   UNL     1       4.006  -1.685  30.547  0.00  0.00    +0.000 HD
ENDBRANCH  33  41
BRANCH  30  43
ATOM     43  O   UNL     1       7.641   3.059  29.144  0.00  0.00    +0.000 OA
ATOM     44  H   UNL     1       7.217   3.897  28.885  0.00  0.00    +0.000 HD
ENDBRANCH  30  43
ENDBRANCH   8  29
BRANCH   6  45
ATOM     45  O   UNL     1       8.232   6.688  25.421  0.00  0.00    +0.000 OA
ATOM     46  H   UNL     1       7.500   6.903  26.033  0.00  0.00    +0.000 HD
ENDBRANCH   6  45
BRANCH   5  47
ATOM     47  O   UNL     1       9.772   5.489  23.575  0.00  0.00    +0.000 OA
ATOM     48  H   UNL     1       9.433   5.384  22.657  0.00  0.00    +0.000 HD
ENDBRANCH   5  47
BRANCH  11  49
ATOM     49  O   UNL     1      10.071   0.485  22.068  0.00  0.00    +0.000 OA
ATOM     50  H   UNL     1      10.464   0.078  22.865  0.00  0.00    +0.000 HD
ENDBRANCH  11  49
TORSDOF 11
ENDMDL
