MODEL 1
REMARK VINA RESULT:      -7.2      0.000      0.000
REMARK  Name = 
REMARK  10 active torsions:
REMARK  status: ('A' for Active; 'I' for Inactive)
REMARK    1  A    between atoms: C_1  and  C_2
REMARK    2  A    between atoms: C_3  and  O_31
REMARK    3  A    between atoms: C_4  and  O_30
REMARK    4  A    between atoms: C_5  and  O_29
REMARK    5  A    between atoms: C_6  and  O_8
REMARK    6  A    between atoms: O_8  and  C_9
REMARK    7  A    between atoms: C_10  and  C_22
REMARK    8  A    between atoms: C_14  and  O_21
REMARK    9  A    between atoms: C_16  and  O_20
REMARK   10  A    between atoms: C_25  and  O_28
REMARK                            x       y       z     vdW  Elec       q    Type
REMARK                         _______ _______ _______ _____ _____    ______ ____
ROOT
ATOM      1  C   UNL     1       7.343  -2.548  24.865  0.00  0.00    +0.000 A 
ATOM      2  C   UNL     1       6.614  -1.454  25.193  0.00  0.00    +0.000 A 
ATOM      3  O   UNL     1       6.744  -0.215  24.574  0.00  0.00    +0.000 OA
ATOM      4  C   UNL     1       7.692  -0.026  23.612  0.00  0.00    +0.000 A 
ATOM      5  C   UNL     1       7.803   1.267  23.093  0.00  0.00    +0.000 A 
ATOM      6  C   UNL     1       8.765   1.532  22.125  0.00  0.00    +0.000 A 
ATOM      7  C   UNL     1       9.605   0.526  21.664  0.00  0.00    +0.000 A 
ATOM      8  C   UNL     1       9.484  -0.760  22.184  0.00  0.00    +0.000 A 
ATOM      9  C   UNL     1       8.522  -1.040  23.167  0.00  0.00    +0.000 A 
ATOM     10  C   UNL     1       8.379  -2.369  23.785  0.00  0.00    +0.000 A 
ATOM     11  O   UNL     1       9.137  -3.270  23.452  0.00  0.00    +0.000 OA
ENDROOT
BRANCH   2  12
ATOM     12  C   UNL     1       5.558  -1.393  26.243  0.00  0.00    +0.000 A 
ATOM     13  C   UNL     1       5.816  -0.679  27.435  0.00  0.00    +0.000 A 
ATOM     14  C   UNL     1       4.810  -0.434  28.377  0.00  0.00    +0.000 A 
ATOM     15  C   UNL     1       3.530  -0.909  28.137  0.00  0.00    +0.000 A 
ATOM     16  C   UNL     1       3.257  -1.660  26.999  0.00  0.00    +0.000 A 
ATOM     17  C   UNL     1       4.264  -1.897  26.053  0.00  0.00    +0.000 A 
BRANCH  15  18
ATOM     18  O   UNL     1       2.501  -0.638  28.987  0.00  0.00    +0.000 OA
ATOM     19  H   UNL     1       2.391  -1.390  29.591  0.00  0.00    +0.000 HD
ENDBRANCH  15  18
ENDBRANCH   2  12
BRANCH   8  20
ATOM     20  O   UNL     1      10.319  -1.735  21.721  0.00  0.00    +0.000 OA
ATOM     21  H   UNL     1      10.112  -1.937  20.795  0.00  0.00    +0.000 HD
ENDBRANCH   8  20
BRANCH   6  22
ATOM     22  O   UNL     1       8.930   2.778  21.601  0.00  0.00    +0.000 OA
ATOM     23  H   UNL     1       9.149   2.703  20.657  0.00  0.00    +0.000 HD
ENDBRANCH   6  22
BRANCH   1  24
ATOM     24  O   UNL     1       7.179  -3.762  25.540  0.00  0.00    +0.000 OA
BRANCH  24  30
ATOM     25  C   UNL     1       3.594  -6.042  26.378  0.00  0.00    +0.000 C 
ATOM     26  C   UNL     1       4.879  -6.619  25.775  0.00  0.00    +0.000 C 
ATOM     27  C   UNL     1       4.736  -6.991  24.289  0.00  0.00    +0.000 C 
ATOM     28  C   UNL     1       4.737  -5.718  23.421  0.00  0.00    +0.000 C 
ATOM     29  C   UNL     1       5.978  -4.862  23.731  0.00  0.00    +0.000 C 
ATOM     30  C   UNL     1       6.005  -4.544  25.243  0.00  0.00    +0.000 C 
ATOM     31  O   UNL     1       6.029  -5.780  25.972  0.00  0.00    +0.000 OA
BRANCH  27  32
ATOM     32  O   UNL     1       3.576  -7.802  24.082  0.00  0.00    +0.000 OA
ATOM     33  H   UNL     1       3.172  -7.549  23.234  0.00  0.00    +0.000 HD
ENDBRANCH  27  32
BRANCH  29  34
ATOM     34  O   UNL     1       7.143  -5.609  23.317  0.00  0.00    +0.000 OA
ATOM     35  H   UNL     1       6.848  -6.532  23.192  0.00  0.00    +0.000 HD
ENDBRANCH  29  34
BRANCH  28  36
ATOM     36  O   UNL     1       4.718  -6.076  22.033  0.00  0.00    +0.000 OA
ATOM     37  H   UNL     1       5.531  -5.687  21.654  0.00  0.00    +0.000 HD
ENDBRANCH  28  36
ENDBRANCH  24  30
ENDBRANCH   1  24
TORSDOF 9
ENDMDL
MODEL 2
REMARK VINA RESULT:      -7.0      2.200      4.094
REMARK  Name = 
REMARK  10 active torsions:
REMARK  status: ('A' for Active; 'I' for Inactive)
REMARK    1  A    between atoms: C_1  and  C_2
REMARK    2  A    between atoms: C_3  and  O_31
REMARK    3  A    between atoms: C_4  and  O_30
REMARK    4  A    between atoms: C_5  and  O_29
REMARK    5  A    between atoms: C_6  and  O_8
REMARK    6  A    between atoms: O_8  and  C_9
REMARK    7  A    between atoms: C_10  and  C_22
REMARK    8  A    between atoms: C_14  and  O_21
REMARK    9  A    between atoms: C_16  and  O_20
REMARK   10  A    between atoms: C_25  and  O_28
REMARK                            x       y       z     vdW  Elec       q    Type
REMARK                         _______ _______ _______ _____ _____    ______ ____
ROOT
ATOM      1  C   UNL     1       7.650  -2.843  24.870  0.00  0.00    +0.000 A 
ATOM      2  C   UNL     1       6.776  -2.693  23.846  0.00  0.00    +0.000 A 
ATOM      3  O   UNL     1       6.710  -1.565  23.036  0.00  0.00    +0.000 OA
ATOM      4  C   UNL     1       7.515  -0.493  23.286  0.00  0.00    +0.000 A 
ATOM      5  C   UNL     1       7.335   0.627  22.469  0.00  0.00    +0.000 A 
ATOM      6  C   UNL     1       8.110   1.761  22.687  0.00  0.00    +0.000 A 
ATOM      7  C   UNL     1       9.063   1.787  23.697  0.00  0.00    +0.000 A 
ATOM      8  C   UNL     1       9.239   0.665  24.502  0.00  0.00    +0.000 A 
ATOM      9  C   UNL     1       8.459  -0.484  24.299  0.00  0.00    +0.000 A 
ATOM     10  C   UNL     1       8.568  -1.682  25.148  0.00  0.00    +0.000 A 
ATOM     11  O   UNL     1       9.354  -1.681  26.088  0.00  0.00    +0.000 OA
ENDROOT
BRANCH   2  12
ATOM     12  C   UNL     1       5.763  -3.696  23.410  0.00  0.00    +0.000 A 
ATOM     13  C   UNL     1       6.187  -4.821  22.667  0.00  0.00    +0.000 A 
ATOM     14  C   UNL     1       5.321  -5.883  22.383  0.00  0.00    +0.000 A 
ATOM     15  C   UNL     1       4.013  -5.827  22.838  0.00  0.00    +0.000 A 
ATOM     16  C   UNL     1       3.551  -4.710  23.525  0.00  0.00    +0.000 A 
ATOM     17  C   UNL     1       4.423  -3.652  23.816  0.00  0.00    +0.000 A 
BRANCH  15  18
ATOM     18  O   UNL     1       3.151  -6.864  22.649  0.00  0.00    +0.000 OA
ATOM     19  H   UNL     1       3.647  -7.619  22.292  0.00  0.00    +0.000 HD
ENDBRANCH  15  18
ENDBRANCH   2  12
BRANCH   8  20
ATOM     20  O   UNL     1      10.178   0.709  25.492  0.00  0.00    +0.000 OA
ATOM     21  H   UNL     1      10.896   0.088  25.295  0.00  0.00    +0.000 HD
ENDBRANCH   8  20
BRANCH   6  22
ATOM     22  O   UNL     1       7.960   2.886  21.934  0.00  0.00    +0.000 OA
ATOM     23  H   UNL     1       7.247   2.748  21.289  0.00  0.00    +0.000 HD
ENDBRANCH   6  22
BRANCH   1  24
ATOM     24  O   UNL     1       7.652  -3.996  25.662  0.00  0.00    +0.000 OA
BRANCH  24  30
ATOM     25  C   UNL     1       3.747  -3.345  27.418  0.00  0.00    +0.000 C 
ATOM     26  C   UNL     1       5.014  -3.698  28.204  0.00  0.00    +0.000 C 
ATOM     27  C   UNL     1       4.998  -5.129  28.766  0.00  0.00    +0.000 C 
ATOM     28  C   UNL     1       5.252  -6.145  27.637  0.00  0.00    +0.000 C 
ATOM     29  C   UNL     1       6.543  -5.790  26.878  0.00  0.00    +0.000 C 
ATOM     30  C   UNL     1       6.435  -4.340  26.353  0.00  0.00    +0.000 C 
ATOM     31  O   UNL     1       6.227  -3.461  27.469  0.00  0.00    +0.000 OA
BRANCH  27  32
ATOM     32  O   UNL     1       3.781  -5.380  29.474  0.00  0.00    +0.000 OA
ATOM     33  H   UNL     1       3.693  -4.714  30.178  0.00  0.00    +0.000 HD
ENDBRANCH  27  32
BRANCH  29  34
ATOM     34  O   UNL     1       7.650  -5.949  27.792  0.00  0.00    +0.000 OA
ATOM     35  H   UNL     1       8.461  -5.929  27.248  0.00  0.00    +0.000 HD
ENDBRANCH  29  34
BRANCH  28  36
ATOM     36  O   UNL     1       5.349  -7.467  28.184  0.00  0.00    +0.000 OA
ATOM     37  H   UNL     1       4.587  -7.956  27.816  0.00  0.00    +0.000 HD
ENDBRANCH  28  36
ENDBRANCH  24  30
ENDBRANCH   1  24
TORSDOF 9
ENDMDL
MODEL 3
REMARK VINA RESULT:      -6.9      0.848      1.712
REMARK  Name = 
REMARK  10 active torsions:
REMARK  status: ('A' for Active; 'I' for Inactive)
REMARK    1  A    between atoms: C_1  and  C_2
REMARK    2  A    between atoms: C_3  and  O_31
REMARK    3  A    between atoms: C_4  and  O_30
REMARK    4  A    between atoms: C_5  and  O_29
REMARK    5  A    between atoms: C_6  and  O_8
REMARK    6  A    between atoms: O_8  and  C_9
REMARK    7  A    between atoms: C_10  and  C_22
REMARK    8  A    between atoms: C_14  and  O_21
REMARK    9  A    between atoms: C_16  and  O_20
REMARK   10  A    between atoms: C_25  and  O_28
REMARK                            x       y       z     vdW  Elec       q    Type
REMARK                         _______ _______ _______ _____ _____    ______ ____
ROOT
ATOM      1  C   UNL     1       7.483  -2.459  25.120  0.00  0.00    +0.000 A 
ATOM      2  C   UNL     1       6.763  -1.335  25.354  0.00  0.00    +0.000 A 
ATOM      3  O   UNL     1       6.920  -0.147  24.649  0.00  0.00    +0.000 OA
ATOM      4  C   UNL     1       7.886  -0.040  23.693  0.00  0.00    +0.000 A 
ATOM      5  C   UNL     1       8.024   1.210  23.083  0.00  0.00    +0.000 A 
ATOM      6  C   UNL     1       9.006   1.392  22.115  0.00  0.00    +0.000 A 
ATOM      7  C   UNL     1       9.840   0.345  21.744  0.00  0.00    +0.000 A 
ATOM      8  C   UNL     1       9.693  -0.898  22.354  0.00  0.00    +0.000 A 
ATOM      9  C   UNL     1       8.711  -1.094  23.338  0.00  0.00    +0.000 A 
ATOM     10  C   UNL     1       8.539  -2.372  24.049  0.00  0.00    +0.000 A 
ATOM     11  O   UNL     1       9.291  -3.305  23.796  0.00  0.00    +0.000 OA
ENDROOT
BRANCH   2  12
ATOM     12  C   UNL     1       5.690  -1.185  26.378  0.00  0.00    +0.000 A 
ATOM     13  C   UNL     1       5.948  -0.415  27.534  0.00  0.00    +0.000 A 
ATOM     14  C   UNL     1       4.934  -0.089  28.441  0.00  0.00    +0.000 A 
ATOM     15  C   UNL     1       3.644  -0.537  28.201  0.00  0.00    +0.000 A 
ATOM     16  C   UNL     1       3.369  -1.340  27.100  0.00  0.00    +0.000 A 
ATOM     17  C   UNL     1       4.385  -1.659  26.189  0.00  0.00    +0.000 A 
BRANCH  15  18
ATOM     18  O   UNL     1       2.608  -0.188  29.014  0.00  0.00    +0.000 OA
ATOM     19  H   UNL     1       1.775  -0.424  28.575  0.00  0.00    +0.000 HD
ENDBRANCH  15  18
ENDBRANCH   2  12
BRANCH   8  20
ATOM     20  O   UNL     1      10.523  -1.915  21.979  0.00  0.00    +0.000 OA
ATOM     21  H   UNL     1      11.390  -1.807  22.401  0.00  0.00    +0.000 HD
ENDBRANCH   8  20
BRANCH   6  22
ATOM     22  O   UNL     1       9.196   2.594  21.505  0.00  0.00    +0.000 OA
ATOM     23  H   UNL     1       8.491   2.738  20.853  0.00  0.00    +0.000 HD
ENDBRANCH   6  22
BRANCH   1  24
ATOM     24  O   UNL     1       7.292  -3.618  25.879  0.00  0.00    +0.000 OA
BRANCH  24  30
ATOM     25  C   UNL     1       6.059  -6.156  22.592  0.00  0.00    +0.000 C 
ATOM     26  C   UNL     1       5.107  -5.356  23.488  0.00  0.00    +0.000 C 
ATOM     27  C   UNL     1       4.288  -6.241  24.443  0.00  0.00    +0.000 C 
ATOM     28  C   UNL     1       5.177  -6.737  25.599  0.00  0.00    +0.000 C 
ATOM     29  C   UNL     1       5.866  -5.549  26.291  0.00  0.00    +0.000 C 
ATOM     30  C   UNL     1       6.664  -4.746  25.238  0.00  0.00    +0.000 C 
ATOM     31  O   UNL     1       5.758  -4.302  24.217  0.00  0.00    +0.000 OA
BRANCH  27  32
ATOM     32  O   UNL     1       3.662  -7.310  23.728  0.00  0.00    +0.000 OA
ATOM     33  H   UNL     1       2.910  -6.945  23.228  0.00  0.00    +0.000 HD
ENDBRANCH  27  32
BRANCH  29  34
ATOM     34  O   UNL     1       4.841  -4.746  26.915  0.00  0.00    +0.000 OA
ATOM     35  H   UNL     1       5.305  -4.069  27.444  0.00  0.00    +0.000 HD
ENDBRANCH  29  34
BRANCH  28  36
ATOM     36  O   UNL     1       4.384  -7.467  26.544  0.00  0.00    +0.000 OA
ATOM     37  H   UNL     1       3.539  -6.978  26.606  0.00  0.00    +0.000 HD
ENDBRANCH  28  36
ENDBRANCH  24  30
ENDBRANCH   1  24
TORSDOF 9
ENDMDL
MODEL 4
REMARK VINA RESULT:      -6.9      2.204      4.776
REMARK  Name = 
REMARK  10 active torsions:
REMARK  status: ('A' for Active; 'I' for Inactive)
REMARK    1  A    between atoms: C_1  and  C_2
REMARK    2  A    between atoms: C_3  and  O_31
REMARK    3  A    between atoms: C_4  and  O_30
REMARK    4  A    between atoms: C_5  and  O_29
REMARK    5  A    between atoms: C_6  and  O_8
REMARK    6  A    between atoms: O_8  and  C_9
REMARK    7  A    between atoms: C_10  and  C_22
REMARK    8  A    between atoms: C_14  and  O_21
REMARK    9  A    between atoms: C_16  and  O_20
REMARK   10  A    between atoms: C_25  and  O_28
REMARK                            x       y       z     vdW  Elec       q    Type
REMARK                         _______ _______ _______ _____ _____    ______ ____
ROOT
ATOM      1  C   UNL     1       6.633  -1.249  24.668  0.00  0.00    +0.000 A 
ATOM      2  C   UNL     1       7.233  -1.616  23.510  0.00  0.00    +0.000 A 
ATOM      3  O   UNL     1       8.207  -0.864  22.862  0.00  0.00    +0.000 OA
ATOM      4  C   UNL     1       8.572   0.354  23.355  0.00  0.00    +0.000 A 
ATOM      5  C   UNL     1       9.505   1.076  22.605  0.00  0.00    +0.000 A 
ATOM      6  C   UNL     1       9.903   2.335  23.042  0.00  0.00    +0.000 A 
ATOM      7  C   UNL     1       9.392   2.873  24.216  0.00  0.00    +0.000 A 
ATOM      8  C   UNL     1       8.466   2.145  24.959  0.00  0.00    +0.000 A 
ATOM      9  C   UNL     1       8.050   0.877  24.526  0.00  0.00    +0.000 A 
ATOM     10  C   UNL     1       7.041   0.081  25.246  0.00  0.00    +0.000 A 
ATOM     11  O   UNL     1       6.520   0.543  26.253  0.00  0.00    +0.000 OA
ENDROOT
BRANCH   2  12
ATOM     12  C   UNL     1       6.967  -2.871  22.751  0.00  0.00    +0.000 A 
ATOM     13  C   UNL     1       7.816  -3.984  22.946  0.00  0.00    +0.000 A 
ATOM     14  C   UNL     1       7.518  -5.240  22.404  0.00  0.00    +0.000 A 
ATOM     15  C   UNL     1       6.364  -5.393  21.652  0.00  0.00    +0.000 A 
ATOM     16  C   UNL     1       5.536  -4.306  21.397  0.00  0.00    +0.000 A 
ATOM     17  C   UNL     1       5.832  -3.052  21.948  0.00  0.00    +0.000 A 
BRANCH  15  18
ATOM     18  O   UNL     1       5.993  -6.609  21.162  0.00  0.00    +0.000 OA
ATOM     19  H   UNL     1       6.617  -7.278  21.487  0.00  0.00    +0.000 HD
ENDBRANCH  15  18
ENDBRANCH   2  12
BRANCH   8  20
ATOM     20  O   UNL     1       7.973   2.692  26.108  0.00  0.00    +0.000 OA
ATOM     21  H   UNL     1       7.593   1.997  26.669  0.00  0.00    +0.000 HD
ENDBRANCH   8  20
BRANCH   6  22
ATOM     22  O   UNL     1      10.793   3.089  22.339  0.00  0.00    +0.000 OA
ATOM     23  H   UNL     1      11.024   3.877  22.857  0.00  0.00    +0.000 HD
ENDBRANCH   6  22
BRANCH   1  24
ATOM     24  O   UNL     1       5.644  -2.041  25.259  0.00  0.00    +0.000 OA
BRANCH  24  30
ATOM     25  C   UNL     1       7.993  -5.397  26.666  0.00  0.00    +0.000 C 
ATOM     26  C   UNL     1       6.498  -5.452  26.333  0.00  0.00    +0.000 C 
ATOM     27  C   UNL     1       5.605  -5.590  27.577  0.00  0.00    +0.000 C 
ATOM     28  C   UNL     1       5.528  -4.245  28.327  0.00  0.00    +0.000 C 
ATOM     29  C   UNL     1       5.090  -3.124  27.369  0.00  0.00    +0.000 C 
ATOM     30  C   UNL     1       6.065  -3.076  26.171  0.00  0.00    +0.000 C 
ATOM     31  O   UNL     1       6.055  -4.354  25.517  0.00  0.00    +0.000 OA
BRANCH  27  32
ATOM     32  O   UNL     1       6.059  -6.662  28.408  0.00  0.00    +0.000 OA
ATOM     33  H   UNL     1       5.328  -7.294  28.519  0.00  0.00    +0.000 HD
ENDBRANCH  27  32
BRANCH  29  34
ATOM     34  O   UNL     1       3.737  -3.406  26.949  0.00  0.00    +0.000 OA
ATOM     35  H   UNL     1       3.746  -3.404  25.972  0.00  0.00    +0.000 HD
ENDBRANCH  29  34
BRANCH  28  36
ATOM     36  O   UNL     1       4.606  -4.350  29.419  0.00  0.00    +0.000 OA
ATOM     37  H   UNL     1       5.159  -4.353  30.226  0.00  0.00    +0.000 HD
ENDBRANCH  28  36
ENDBRANCH  24  30
ENDBRANCH   1  24
TORSDOF 9
ENDMDL
MODEL 5
REMARK VINA RESULT:      -6.7      2.671      7.341
REMARK  Name = 
REMARK  10 active torsions:
REMARK  status: ('A' for Active; 'I' for Inactive)
REMARK    1  A    between atoms: C_1  and  C_2
REMARK    2  A    between atoms: C_3  and  O_31
REMARK    3  A    between atoms: C_4  and  O_30
REMARK    4  A    between atoms: C_5  and  O_29
REMARK    5  A    between atoms: C_6  and  O_8
REMARK    6  A    between atoms: O_8  and  C_9
REMARK    7  A    between atoms: C_10  and  C_22
REMARK    8  A    between atoms: C_14  and  O_21
REMARK    9  A    between atoms: C_16  and  O_20
REMARK   10  A    between atoms: C_25  and  O_28
REMARK                            x       y       z     vdW  Elec       q    Type
REMARK                         _______ _______ _______ _____ _____    ______ ____
ROOT
ATOM      1  C   UNL     1       6.694  -0.699  23.965  0.00  0.00    +0.000 A 
ATOM      2  C   UNL     1       8.040  -0.587  23.857  0.00  0.00    +0.000 A 
ATOM      3  O   UNL     1       8.932  -1.626  24.101  0.00  0.00    +0.000 OA
ATOM      4  C   UNL     1       8.473  -2.835  24.535  0.00  0.00    +0.000 A 
ATOM      5  C   UNL     1       9.441  -3.801  24.825  0.00  0.00    +0.000 A 
ATOM      6  C   UNL     1       9.040  -5.048  25.293  0.00  0.00    +0.000 A 
ATOM      7  C   UNL     1       7.693  -5.343  25.465  0.00  0.00    +0.000 A 
ATOM      8  C   UNL     1       6.736  -4.375  25.169  0.00  0.00    +0.000 A 
ATOM      9  C   UNL     1       7.127  -3.111  24.703  0.00  0.00    +0.000 A 
ATOM     10  C   UNL     1       6.163  -2.034  24.418  0.00  0.00    +0.000 A 
ATOM     11  O   UNL     1       4.970  -2.231  24.612  0.00  0.00    +0.000 OA
ENDROOT
BRANCH   2  12
ATOM     12  C   UNL     1       8.783   0.640  23.452  0.00  0.00    +0.000 A 
ATOM     13  C   UNL     1       9.046   1.634  24.423  0.00  0.00    +0.000 A 
ATOM     14  C   UNL     1       9.887   2.719  24.153  0.00  0.00    +0.000 A 
ATOM     15  C   UNL     1      10.473   2.824  22.901  0.00  0.00    +0.000 A 
ATOM     16  C   UNL     1      10.193   1.892  21.909  0.00  0.00    +0.000 A 
ATOM     17  C   UNL     1       9.357   0.801  22.184  0.00  0.00    +0.000 A 
BRANCH  15  18
ATOM     18  O   UNL     1      11.354   3.822  22.612  0.00  0.00    +0.000 OA
ATOM     19  H   UNL     1      11.134   4.187  21.739  0.00  0.00    +0.000 HD
ENDBRANCH  15  18
ENDBRANCH   2  12
BRANCH   8  20
ATOM     20  O   UNL     1       5.418  -4.682  25.346  0.00  0.00    +0.000 OA
ATOM     21  H   UNL     1       5.115  -4.355  26.208  0.00  0.00    +0.000 HD
ENDBRANCH   8  20
BRANCH   6  22
ATOM     22  O   UNL     1       9.942  -6.018  25.610  0.00  0.00    +0.000 OA
ATOM     23  H   UNL     1      10.310  -5.837  26.490  0.00  0.00    +0.000 HD
ENDBRANCH   6  22
BRANCH   1  24
ATOM     24  O   UNL     1       5.851   0.391  23.726  0.00  0.00    +0.000 OA
BRANCH  24  30
ATOM     25  C   UNL     1       5.225   1.556  27.850  0.00  0.00    +0.000 C 
ATOM     26  C   UNL     1       4.150   1.585  26.758  0.00  0.00    +0.000 C 
ATOM     27  C   UNL     1       3.765   3.010  26.325  0.00  0.00    +0.000 C 
ATOM     28  C   UNL     1       4.874   3.613  25.441  0.00  0.00    +0.000 C 
ATOM     29  C   UNL     1       5.192   2.672  24.267  0.00  0.00    +0.000 C 
ATOM     30  C   UNL     1       5.575   1.282  24.825  0.00  0.00    +0.000 C 
ATOM     31  O   UNL     1       4.481   0.785  25.610  0.00  0.00    +0.000 OA
BRANCH  27  32
ATOM     32  O   UNL     1       3.464   3.819  27.465  0.00  0.00    +0.000 OA
ATOM     33  H   UNL     1       3.995   3.502  28.216  0.00  0.00    +0.000 HD
ENDBRANCH  27  32
BRANCH  29  34
ATOM     34  O   UNL     1       4.022   2.608  23.423  0.00  0.00    +0.000 OA
ATOM     35  H   UNL     1       3.888   3.509  23.069  0.00  0.00    +0.000 HD
ENDBRANCH  29  34
BRANCH  28  36
ATOM     36  O   UNL     1       4.460   4.894  24.949  0.00  0.00    +0.000 OA
ATOM     37  H   UNL     1       3.649   5.114  25.448  0.00  0.00    +0.000 HD
ENDBRANCH  28  36
ENDBRANCH  24  30
ENDBRANCH   1  24
TORSDOF 9
ENDMDL
MODEL 6
REMARK VINA RESULT:      -6.7      3.107      6.747
REMARK  Name = 
REMARK  10 active torsions:
REMARK  status: ('A' for Active; 'I' for Inactive)
REMARK    1  A    between atoms: C_1  and  C_2
REMARK    2  A    between atoms: C_3  and  O_31
REMARK    3  A    between atoms: C_4  and  O_30
REMARK    4  A    between atoms: C_5  and  O_29
REMARK    5  A    between atoms: C_6  and  O_8
REMARK    6  A    between atoms: O_8  and  C_9
REMARK    7  A    between atoms: C_10  and  C_22
REMARK    8  A    between atoms: C_14  and  O_21
REMARK    9  A    between atoms: C_16  and  O_20
REMARK   10  A    between atoms: C_25  and  O_28
REMARK                            x       y       z     vdW  Elec       q    Type
REMARK                         _______ _______ _______ _____ _____    ______ ____
ROOT
ATOM      1  C   UNL     1       8.163   2.472  23.690  0.00  0.00    +0.000 A 
ATOM      2  C   UNL     1       9.192   1.603  23.543  0.00  0.00    +0.000 A 
ATOM      3  O   UNL     1      10.529   1.979  23.483  0.00  0.00    +0.000 OA
ATOM      4  C   UNL     1      10.872   3.299  23.512  0.00  0.00    +0.000 A 
ATOM      5  C   UNL     1      12.231   3.594  23.375  0.00  0.00    +0.000 A 
ATOM      6  C   UNL     1      12.644   4.921  23.374  0.00  0.00    +0.000 A 
ATOM      7  C   UNL     1      11.723   5.952  23.517  0.00  0.00    +0.000 A 
ATOM      8  C   UNL     1      10.372   5.649  23.657  0.00  0.00    +0.000 A 
ATOM      9  C   UNL     1       9.940   4.313  23.652  0.00  0.00    +0.000 A 
ATOM     10  C   UNL     1       8.520   3.935  23.750  0.00  0.00    +0.000 A 
ATOM     11  O   UNL     1       7.669   4.812  23.818  0.00  0.00    +0.000 OA
ENDROOT
BRANCH   2  12
ATOM     12  C   UNL     1       9.072   0.121  23.435  0.00  0.00    +0.000 A 
ATOM     13  C   UNL     1       9.218  -0.666  24.600  0.00  0.00    +0.000 A 
ATOM     14  C   UNL     1       8.942  -2.037  24.599  0.00  0.00    +0.000 A 
ATOM     15  C   UNL     1       8.520  -2.640  23.424  0.00  0.00    +0.000 A 
ATOM     16  C   UNL     1       8.417  -1.904  22.250  0.00  0.00    +0.000 A 
ATOM     17  C   UNL     1       8.686  -0.529  22.255  0.00  0.00    +0.000 A 
BRANCH  15  18
ATOM     18  O   UNL     1       8.171  -3.956  23.388  0.00  0.00    +0.000 OA
ATOM     19  H   UNL     1       7.461  -4.108  24.034  0.00  0.00    +0.000 HD
ENDBRANCH  15  18
ENDBRANCH   2  12
BRANCH   8  20
ATOM     20  O   UNL     1       9.481   6.674  23.793  0.00  0.00    +0.000 OA
ATOM     21  H   UNL     1       9.927   7.522  23.643  0.00  0.00    +0.000 HD
ENDBRANCH   8  20
BRANCH   6  22
ATOM     22  O   UNL     1      13.954   5.265  23.224  0.00  0.00    +0.000 OA
ATOM     23  H   UNL     1      14.494   4.742  23.838  0.00  0.00    +0.000 HD
ENDBRANCH   6  22
BRANCH   1  24
ATOM     24  O   UNL     1       6.836   2.032  23.722  0.00  0.00    +0.000 OA
BRANCH  24  30
ATOM     25  C   UNL     1       6.407  -0.029  27.507  0.00  0.00    +0.000 C 
ATOM     26  C   UNL     1       5.397  -0.089  26.356  0.00  0.00    +0.000 C 
ATOM     27  C   UNL     1       4.094   0.673  26.654  0.00  0.00    +0.000 C 
ATOM     28  C   UNL     1       4.332   2.191  26.547  0.00  0.00    +0.000 C 
ATOM     29  C   UNL     1       4.958   2.539  25.185  0.00  0.00    +0.000 C 
ATOM     30  C   UNL     1       6.260   1.725  25.007  0.00  0.00    +0.000 C 
ATOM     31  O   UNL     1       5.944   0.328  25.094  0.00  0.00    +0.000 OA
BRANCH  27  32
ATOM     32  O   UNL     1       3.561   0.283  27.923  0.00  0.00    +0.000 OA
ATOM     33  H   UNL     1       3.400   1.086  28.447  0.00  0.00    +0.000 HD
ENDBRANCH  27  32
BRANCH  29  34
ATOM     34  O   UNL     1       3.987   2.231  24.162  0.00  0.00    +0.000 OA
ATOM     35  H   UNL     1       3.755   3.080  23.738  0.00  0.00    +0.000 HD
ENDBRANCH  29  34
BRANCH  28  36
ATOM     36  O   UNL     1       3.092   2.890  26.713  0.00  0.00    +0.000 OA
ATOM     37  H   UNL     1       3.334   3.765  27.077  0.00  0.00    +0.000 HD
ENDBRANCH  28  36
ENDBRANCH  24  30
ENDBRANCH   1  24
TORSDOF 9
ENDMDL
MODEL 7
REMARK VINA RESULT:      -6.7      2.739      7.774
REMARK  Name = 
REMARK  10 active torsions:
REMARK  status: ('A' for Active; 'I' for Inactive)
REMARK    1  A    between atoms: C_1  and  C_2
REMARK    2  A    between atoms: C_3  and  O_31
REMARK    3  A    between atoms: C_4  and  O_30
REMARK    4  A    between atoms: C_5  and  O_29
REMARK    5  A    between atoms: C_6  and  O_8
REMARK    6  A    between atoms: O_8  and  C_9
REMARK    7  A    between atoms: C_10  and  C_22
REMARK    8  A    between atoms: C_14  and  O_21
REMARK    9  A    between atoms: C_16  and  O_20
REMARK   10  A    between atoms: C_25  and  O_28
REMARK                            x       y       z     vdW  Elec       q    Type
REMARK                         _______ _______ _______ _____ _____    ______ ____
ROOT
ATOM      1  C   UNL     1       6.544  -0.587  24.413  0.00  0.00    +0.000 A 
ATOM      2  C   UNL     1       7.641  -0.776  23.641  0.00  0.00    +0.000 A 
ATOM      3  O   UNL     1       7.912  -1.948  22.943  0.00  0.00    +0.000 OA
ATOM      4  C   UNL     1       7.080  -3.022  23.059  0.00  0.00    +0.000 A 
ATOM      5  C   UNL     1       7.463  -4.184  22.382  0.00  0.00    +0.000 A 
ATOM      6  C   UNL     1       6.670  -5.321  22.477  0.00  0.00    +0.000 A 
ATOM      7  C   UNL     1       5.501  -5.311  23.228  0.00  0.00    +0.000 A 
ATOM      8  C   UNL     1       5.124  -4.149  23.895  0.00  0.00    +0.000 A 
ATOM      9  C   UNL     1       5.920  -2.995  23.814  0.00  0.00    +0.000 A 
ATOM     10  C   UNL     1       5.596  -1.752  24.535  0.00  0.00    +0.000 A 
ATOM     11  O   UNL     1       4.607  -1.717  25.255  0.00  0.00    +0.000 OA
ENDROOT
BRANCH   2  12
ATOM     12  C   UNL     1       8.719   0.224  23.399  0.00  0.00    +0.000 A 
ATOM     13  C   UNL     1       8.832   0.816  22.121  0.00  0.00    +0.000 A 
ATOM     14  C   UNL     1       9.703   1.885  21.881  0.00  0.00    +0.000 A 
ATOM     15  C   UNL     1      10.477   2.372  22.922  0.00  0.00    +0.000 A 
ATOM     16  C   UNL     1      10.427   1.778  24.178  0.00  0.00    +0.000 A 
ATOM     17  C   UNL     1       9.549   0.712  24.418  0.00  0.00    +0.000 A 
BRANCH  15  18
ATOM     18  O   UNL     1      11.287   3.455  22.758  0.00  0.00    +0.000 OA
ATOM     19  H   UNL     1      11.925   3.261  22.053  0.00  0.00    +0.000 HD
ENDBRANCH  15  18
ENDBRANCH   2  12
BRANCH   8  20
ATOM     20  O   UNL     1       3.974  -4.158  24.630  0.00  0.00    +0.000 OA
ATOM     21  H   UNL     1       4.052  -3.543  25.376  0.00  0.00    +0.000 HD
ENDBRANCH   8  20
BRANCH   6  22
ATOM     22  O   UNL     1       7.007  -6.485  21.855  0.00  0.00    +0.000 OA
ATOM     23  H   UNL     1       7.768  -6.327  21.272  0.00  0.00    +0.000 HD
ENDBRANCH   6  22
BRANCH   1  24
ATOM     24  O   UNL     1       6.339   0.610  25.107  0.00  0.00    +0.000 OA
BRANCH  24  30
ATOM     25  C   UNL     1       6.636   3.860  22.261  0.00  0.00    +0.000 C 
ATOM     26  C   UNL     1       6.487   4.033  23.776  0.00  0.00    +0.000 C 
ATOM     27  C   UNL     1       5.104   4.560  24.193  0.00  0.00    +0.000 C 
ATOM     28  C   UNL     1       4.053   3.438  24.080  0.00  0.00    +0.000 C 
ATOM     29  C   UNL     1       4.509   2.198  24.869  0.00  0.00    +0.000 C 
ATOM     30  C   UNL     1       5.898   1.757  24.355  0.00  0.00    +0.000 C 
ATOM     31  O   UNL     1       6.817   2.848  24.521  0.00  0.00    +0.000 OA
BRANCH  27  32
ATOM     32  O   UNL     1       4.758   5.722  23.435  0.00  0.00    +0.000 OA
ATOM     33  H   UNL     1       4.065   6.207  23.915  0.00  0.00    +0.000 HD
ENDBRANCH  27  32
BRANCH  29  34
ATOM     34  O   UNL     1       4.542   2.553  26.268  0.00  0.00    +0.000 OA
ATOM     35  H   UNL     1       5.393   3.009  26.417  0.00  0.00    +0.000 HD
ENDBRANCH  29  34
BRANCH  28  36
ATOM     36  O   UNL     1       2.791   3.903  24.577  0.00  0.00    +0.000 OA
ATOM     37  H   UNL     1       2.345   3.109  24.933  0.00  0.00    +0.000 HD
ENDBRANCH  28  36
ENDBRANCH  24  30
ENDBRANCH   1  24
TORSDOF 9
ENDMDL
MODEL 8
REMARK VINA RESULT:      -6.6      2.055      7.458
REMARK  Name = 
REMARK  10 active torsions:
REMARK  status: ('A' for Active; 'I' for Inactive)
REMARK    1  A    between atoms: C_1  and  C_2
REMARK    2  A    between atoms: C_3  and  O_31
REMARK    3  A    between atoms: C_4  and  O_30
REMARK    4  A    between atoms: C_5  and  O_29
REMARK    5  A    between atoms: C_6  and  O_8
REMARK    6  A    between atoms: O_8  and  C_9
REMARK    7  A    between atoms: C_10  and  C_22
REMARK    8  A    between atoms: C_14  and  O_21
REMARK    9  A    between atoms: C_16  and  O_20
REMARK   10  A    between atoms: C_25  and  O_28
REMARK                            x       y       z     vdW  Elec       q    Type
REMARK                         _______ _______ _______ _____ _____    ______ ____
ROOT
ATOM      1  C   UNL     1       6.821  -1.519  25.740  0.00  0.00    +0.000 A 
ATOM      2  C   UNL     1       5.903  -2.315  25.141  0.00  0.00    +0.000 A 
ATOM      3  O   UNL     1       4.586  -2.445  25.568  0.00  0.00    +0.000 OA
ATOM      4  C   UNL     1       4.161  -1.796  26.690  0.00  0.00    +0.000 A 
ATOM      5  C   UNL     1       2.844  -2.037  27.090  0.00  0.00    +0.000 A 
ATOM      6  C   UNL     1       2.357  -1.423  28.239  0.00  0.00    +0.000 A 
ATOM      7  C   UNL     1       3.161  -0.568  28.982  0.00  0.00    +0.000 A 
ATOM      8  C   UNL     1       4.470  -0.330  28.574  0.00  0.00    +0.000 A 
ATOM      9  C   UNL     1       4.978  -0.949  27.421  0.00  0.00    +0.000 A 
ATOM     10  C   UNL     1       6.367  -0.771  26.967  0.00  0.00    +0.000 A 
ATOM     11  O   UNL     1       7.128  -0.073  27.625  0.00  0.00    +0.000 OA
ENDROOT
BRANCH   2  12
ATOM     12  C   UNL     1       6.136  -3.162  23.937  0.00  0.00    +0.000 A 
ATOM     13  C   UNL     1       6.535  -4.507  24.111  0.00  0.00    +0.000 A 
ATOM     14  C   UNL     1       6.597  -5.399  23.035  0.00  0.00    +0.000 A 
ATOM     15  C   UNL     1       6.263  -4.951  21.766  0.00  0.00    +0.000 A 
ATOM     16  C   UNL     1       5.917  -3.622  21.555  0.00  0.00    +0.000 A 
ATOM     17  C   UNL     1       5.848  -2.732  22.635  0.00  0.00    +0.000 A 
BRANCH  15  18
ATOM     18  O   UNL     1       6.239  -5.797  20.699  0.00  0.00    +0.000 OA
ATOM     19  H   UNL     1       5.917  -5.309  19.923  0.00  0.00    +0.000 HD
ENDBRANCH  15  18
ENDBRANCH   2  12
BRANCH   8  20
ATOM     20  O   UNL     1       5.246   0.511  29.318  0.00  0.00    +0.000 OA
ATOM     21  H   UNL     1       4.782   1.350  29.461  0.00  0.00    +0.000 HD
ENDBRANCH   8  20
BRANCH   6  22
ATOM     22  O   UNL     1       1.088  -1.640  28.684  0.00  0.00    +0.000 OA
ATOM     23  H   UNL     1       0.961  -2.590  28.837  0.00  0.00    +0.000 HD
ENDBRANCH   6  22
BRANCH   1  24
ATOM     24  O   UNL     1       8.138  -1.447  25.274  0.00  0.00    +0.000 OA
BRANCH  24  30
ATOM     25  C   UNL     1       9.393  -0.477  21.244  0.00  0.00    +0.000 C 
ATOM     26  C   UNL     1      10.108  -0.018  22.519  0.00  0.00    +0.000 C 
ATOM     27  C   UNL     1       9.940   1.485  22.800  0.00  0.00    +0.000 C 
ATOM     28  C   UNL     1       8.521   1.770  23.330  0.00  0.00    +0.000 C 
ATOM     29  C   UNL     1       8.213   0.873  24.541  0.00  0.00    +0.000 C 
ATOM     30  C   UNL     1       8.403  -0.606  24.134  0.00  0.00    +0.000 C 
ATOM     31  O   UNL     1       9.753  -0.788  23.681  0.00  0.00    +0.000 OA
BRANCH  27  32
ATOM     32  O   UNL     1      10.263   2.254  21.639  0.00  0.00    +0.000 OA
ATOM     33  H   UNL     1      10.343   3.187  21.902  0.00  0.00    +0.000 HD
ENDBRANCH  27  32
BRANCH  29  34
ATOM     34  O   UNL     1       9.105   1.255  25.611  0.00  0.00    +0.000 OA
ATOM     35  H   UNL     1       9.830   0.600  25.612  0.00  0.00    +0.000 HD
ENDBRANCH  29  34
BRANCH  28  36
ATOM     36  O   UNL     1       8.408   3.151  23.696  0.00  0.00    +0.000 OA
ATOM     37  H   UNL     1       7.504   3.416  23.433  0.00  0.00    +0.000 HD
ENDBRANCH  28  36
ENDBRANCH  24  30
ENDBRANCH   1  24
TORSDOF 9
ENDMDL
MODEL 9
REMARK VINA RESULT:      -6.6      2.337      7.463
REMARK  Name = 
REMARK  10 active torsions:
REMARK  status: ('A' for Active; 'I' for Inactive)
REMARK    1  A    between atoms: C_1  and  C_2
REMARK    2  A    between atoms: C_3  and  O_31
REMARK    3  A    between atoms: C_4  and  O_30
REMARK    4  A    between atoms: C_5  and  O_29
REMARK    5  A    between atoms: C_6  and  O_8
REMARK    6  A    between atoms: O_8  and  C_9
REMARK    7  A    between atoms: C_10  and  C_22
REMARK    8  A    between atoms: C_14  and  O_21
REMARK    9  A    between atoms: C_16  and  O_20
REMARK   10  A    between atoms: C_25  and  O_28
REMARK                            x       y       z     vdW  Elec       q    Type
REMARK                         _______ _______ _______ _____ _____    ______ ____
ROOT
ATOM      1  C   UNL     1       7.581  -1.687  25.279  0.00  0.00    +0.000 A 
ATOM      2  C   UNL     1       7.952  -1.524  23.987  0.00  0.00    +0.000 A 
ATOM      3  O   UNL     1       7.606  -2.395  22.960  0.00  0.00    +0.000 OA
ATOM      4  C   UNL     1       6.899  -3.530  23.233  0.00  0.00    +0.000 A 
ATOM      5  C   UNL     1       6.655  -4.386  22.156  0.00  0.00    +0.000 A 
ATOM      6  C   UNL     1       5.958  -5.570  22.371  0.00  0.00    +0.000 A 
ATOM      7  C   UNL     1       5.497  -5.902  23.638  0.00  0.00    +0.000 A 
ATOM      8  C   UNL     1       5.741  -5.041  24.705  0.00  0.00    +0.000 A 
ATOM      9  C   UNL     1       6.449  -3.846  24.503  0.00  0.00    +0.000 A 
ATOM     10  C   UNL     1       6.776  -2.920  25.600  0.00  0.00    +0.000 A 
ATOM     11  O   UNL     1       6.441  -3.201  26.743  0.00  0.00    +0.000 OA
ENDROOT
BRANCH   2  12
ATOM     12  C   UNL     1       8.768  -0.398  23.449  0.00  0.00    +0.000 A 
ATOM     13  C   UNL     1       8.156   0.544  22.591  0.00  0.00    +0.000 A 
ATOM     14  C   UNL     1       8.813   1.715  22.198  0.00  0.00    +0.000 A 
ATOM     15  C   UNL     1      10.099   1.954  22.658  0.00  0.00    +0.000 A 
ATOM     16  C   UNL     1      10.747   1.022  23.460  0.00  0.00    +0.000 A 
ATOM     17  C   UNL     1      10.084  -0.146  23.859  0.00  0.00    +0.000 A 
BRANCH  15  18
ATOM     18  O   UNL     1      10.755   3.110  22.362  0.00  0.00    +0.000 OA
ATOM     19  H   UNL     1      10.825   3.190  21.397  0.00  0.00    +0.000 HD
ENDBRANCH  15  18
ENDBRANCH   2  12
BRANCH   8  20
ATOM     20  O   UNL     1       5.282  -5.385  25.943  0.00  0.00    +0.000 OA
ATOM     21  H   UNL     1       5.868  -5.021  26.626  0.00  0.00    +0.000 HD
ENDBRANCH   8  20
BRANCH   6  22
ATOM     22  O   UNL     1       5.711  -6.450  21.361  0.00  0.00    +0.000 OA
ATOM     23  H   UNL     1       5.973  -6.050  20.516  0.00  0.00    +0.000 HD
ENDBRANCH   6  22
BRANCH   1  24
ATOM     24  O   UNL     1       7.979  -0.784  26.271  0.00  0.00    +0.000 OA
BRANCH  24  30
ATOM     25  C   UNL     1       6.012   2.898  25.115  0.00  0.00    +0.000 C 
ATOM     26  C   UNL     1       7.203   2.804  26.076  0.00  0.00    +0.000 C 
ATOM     27  C   UNL     1       6.824   3.092  27.538  0.00  0.00    +0.000 C 
ATOM     28  C   UNL     1       6.071   1.889  28.138  0.00  0.00    +0.000 C 
ATOM     29  C   UNL     1       6.887   0.599  27.951  0.00  0.00    +0.000 C 
ATOM     30  C   UNL     1       7.194   0.412  26.447  0.00  0.00    +0.000 C 
ATOM     31  O   UNL     1       7.918   1.560  25.979  0.00  0.00    +0.000 OA
BRANCH  27  32
ATOM     32  O   UNL     1       6.087   4.314  27.637  0.00  0.00    +0.000 OA
ATOM     33  H   UNL     1       6.140   4.630  28.555  0.00  0.00    +0.000 HD
ENDBRANCH  27  32
BRANCH  29  34
ATOM     34  O   UNL     1       8.094   0.723  28.734  0.00  0.00    +0.000 OA
ATOM     35  H   UNL     1       7.983   0.136  29.506  0.00  0.00    +0.000 HD
ENDBRANCH  29  34
BRANCH  28  36
ATOM     36  O   UNL     1       5.821   2.118  29.531  0.00  0.00    +0.000 OA
ATOM     37  H   UNL     1       5.035   1.577  29.746  0.00  0.00    +0.000 HD
ENDBRANCH  28  36
ENDBRANCH  24  30
ENDBRANCH   1  24
TORSDOF 9
ENDMDL
