MODEL 1
REMARK VINA RESULT:      -4.3      0.000      0.000
REMARK  Name = 
REMARK  8 active torsions:
REMARK  status: ('A' for Active; 'I' for Inactive)
REMARK    1  A    between atoms: C_1  and  C_2
REMARK    2  A    between atoms: C_2  and  C_11
REMARK    3  A    between atoms: C_3  and  C_4
REMARK    4  A    between atoms: C_4  and  C_5
REMARK    5  A    between atoms: C_5  and  C_6
REMARK    6  A    between atoms: C_6  and  C_7
REMARK    7  A    between atoms: C_6  and  C_8
REMARK    8  A    between atoms: C_6  and  O_10
REMARK                            x       y       z     vdW  Elec       q    Type
REMARK                         _______ _______ _______ _____ _____    ______ ____
ROOT
ATOM      1  C   UNL     1       9.545   1.948  24.448  0.00  0.00    +0.000 C 
ENDROOT
BRANCH   1   2
ATOM      2  C   UNL     1       9.942   2.693  23.148  0.00  0.00    +0.000 C 
ATOM      3  C   UNL     1      11.254   3.476  23.314  0.00  0.00    +0.000 C 
BRANCH   2   4
ATOM      4  C   UNL     1       9.962   1.723  21.986  0.00  0.00    +0.000 C 
ATOM      5  C   UNL     1       8.924   1.114  21.393  0.00  0.00    +0.000 C 
ENDBRANCH   2   4
BRANCH   2   6
ATOM      6  O   UNL     1       8.904   3.621  22.813  0.00  0.00    +0.000 OA
ATOM      7  H   UNL     1       8.506   3.343  21.973  0.00  0.00    +0.000 HD
ENDBRANCH   2   6
ENDBRANCH   1   2
BRANCH   1   8
ATOM      8  C   UNL     1      10.420   0.725  24.751  0.00  0.00    +0.000 C 
BRANCH   8  11
ATOM      9  C   UNL     1      10.249  -1.874  23.065  0.00  0.00    +0.000 C 
ATOM     10  C   UNL     1       9.515  -1.623  24.351  0.00  0.00    +0.000 C 
ATOM     11  C   UNL     1       9.641  -0.511  25.104  0.00  0.00    +0.000 C 
ATOM     12  C   UNL     1       8.579  -2.719  24.784  0.00  0.00    +0.000 C 
ENDBRANCH   8  11
ENDBRANCH   1   8
TORSDOF 5
ENDMDL
MODEL 2
REMARK VINA RESULT:      -4.2      1.404      2.777
REMARK  Name = 
REMARK  8 active torsions:
REMARK  status: ('A' for Active; 'I' for Inactive)
REMARK    1  A    between atoms: C_1  and  C_2
REMARK    2  A    between atoms: C_2  and  C_11
REMARK    3  A    between atoms: C_3  and  C_4
REMARK    4  A    between atoms: C_4  and  C_5
REMARK    5  A    between atoms: C_5  and  C_6
REMARK    6  A    between atoms: C_6  and  C_7
REMARK    7  A    between atoms: C_6  and  C_8
REMARK    8  A    between atoms: C_6  and  O_10
REMARK                            x       y       z     vdW  Elec       q    Type
REMARK                         _______ _______ _______ _____ _____    ______ ____
ROOT
ATOM      1  C   UNL     1      10.024  -0.089  21.888  0.00  0.00    +0.000 C 
ENDROOT
BRANCH   1   2
ATOM      2  C   UNL     1       9.602   1.328  22.350  0.00  0.00    +0.000 C 
ATOM      3  C   UNL     1       8.093   1.561  22.179  0.00  0.00    +0.000 C 
BRANCH   2   4
ATOM      4  C   UNL     1      10.094   1.577  23.760  0.00  0.00    +0.000 C 
ATOM      5  C   UNL     1      10.785   0.748  24.559  0.00  0.00    +0.000 C 
ENDBRANCH   2   4
BRANCH   2   6
ATOM      6  O   UNL     1      10.299   2.298  21.560  0.00  0.00    +0.000 OA
ATOM      7  H   UNL     1      10.939   2.753  22.129  0.00  0.00    +0.000 HD
ENDBRANCH   2   6
ENDBRANCH   1   2
BRANCH   1   8
ATOM      8  C   UNL     1       8.880  -1.111  21.904  0.00  0.00    +0.000 C 
BRANCH   8  11
ATOM      9  C   UNL     1       7.501  -1.139  24.683  0.00  0.00    +0.000 C 
ATOM     10  C   UNL     1       8.476  -2.168  24.186  0.00  0.00    +0.000 C 
ATOM     11  C   UNL     1       9.025  -2.176  22.955  0.00  0.00    +0.000 C 
ATOM     12  C   UNL     1       8.837  -3.245  25.174  0.00  0.00    +0.000 C 
ENDBRANCH   8  11
ENDBRANCH   1   8
TORSDOF 5
ENDMDL
MODEL 3
REMARK VINA RESULT:      -4.1      2.771      3.998
REMARK  Name = 
REMARK  8 active torsions:
REMARK  status: ('A' for Active; 'I' for Inactive)
REMARK    1  A    between atoms: C_1  and  C_2
REMARK    2  A    between atoms: C_2  and  C_11
REMARK    3  A    between atoms: C_3  and  C_4
REMARK    4  A    between atoms: C_4  and  C_5
REMARK    5  A    between atoms: C_5  and  C_6
REMARK    6  A    between atoms: C_6  and  C_7
REMARK    7  A    between atoms: C_6  and  C_8
REMARK    8  A    between atoms: C_6  and  O_10
REMARK                            x       y       z     vdW  Elec       q    Type
REMARK                         _______ _______ _______ _____ _____    ______ ____
ROOT
ATOM      1  C   UNL     1       8.084  -0.904  22.572  0.00  0.00    +0.000 C 
ENDROOT
BRANCH   1   2
ATOM      2  C   UNL     1       9.579  -0.520  22.431  0.00  0.00    +0.000 C 
ATOM      3  C   UNL     1       9.758   0.849  21.758  0.00  0.00    +0.000 C 
BRANCH   2   4
ATOM      4  C   UNL     1      10.265  -0.625  23.777  0.00  0.00    +0.000 C 
ATOM      5  C   UNL     1      10.633   0.367  24.603  0.00  0.00    +0.000 C 
ENDBRANCH   2   4
BRANCH   2   6
ATOM      6  O   UNL     1      10.235  -1.506  21.626  0.00  0.00    +0.000 OA
ATOM      7  H   UNL     1      11.112  -1.675  22.005  0.00  0.00    +0.000 HD
ENDBRANCH   2   6
ENDBRANCH   1   2
BRANCH   1   8
ATOM      8  C   UNL     1       7.848  -2.174  23.399  0.00  0.00    +0.000 C 
BRANCH   8  11
ATOM      9  C   UNL     1       8.136  -5.164  24.176  0.00  0.00    +0.000 C 
ATOM     10  C   UNL     1       7.544  -4.653  22.894  0.00  0.00    +0.000 C 
ATOM     11  C   UNL     1       7.373  -3.350  22.592  0.00  0.00    +0.000 C 
ATOM     12  C   UNL     1       7.133  -5.711  21.906  0.00  0.00    +0.000 C 
ENDBRANCH   8  11
ENDBRANCH   1   8
TORSDOF 5
ENDMDL
MODEL 4
REMARK VINA RESULT:      -4.0      3.205      5.821
REMARK  Name = 
REMARK  8 active torsions:
REMARK  status: ('A' for Active; 'I' for Inactive)
REMARK    1  A    between atoms: C_1  and  C_2
REMARK    2  A    between atoms: C_2  and  C_11
REMARK    3  A    between atoms: C_3  and  C_4
REMARK    4  A    between atoms: C_4  and  C_5
REMARK    5  A    between atoms: C_5  and  C_6
REMARK    6  A    between atoms: C_6  and  C_7
REMARK    7  A    between atoms: C_6  and  C_8
REMARK    8  A    between atoms: C_6  and  O_10
REMARK                            x       y       z     vdW  Elec       q    Type
REMARK                         _______ _______ _______ _____ _____    ______ ____
ROOT
ATOM      1  C   UNL     1       9.810  -3.105  24.111  0.00  0.00    +0.000 C 
ENDROOT
BRANCH   1   2
ATOM      2  C   UNL     1       9.194  -4.249  24.956  0.00  0.00    +0.000 C 
ATOM      3  C   UNL     1       8.770  -3.766  26.351  0.00  0.00    +0.000 C 
BRANCH   2   4
ATOM      4  C   UNL     1       8.076  -4.915  24.182  0.00  0.00    +0.000 C 
ATOM      5  C   UNL     1       7.622  -4.618  22.954  0.00  0.00    +0.000 C 
ENDBRANCH   2   4
BRANCH   2   6
ATOM      6  O   UNL     1      10.173  -5.282  25.116  0.00  0.00    +0.000 OA
ATOM      7  H   UNL     1       9.763  -6.130  24.883  0.00  0.00    +0.000 HD
ENDBRANCH   2   6
ENDBRANCH   1   2
BRANCH   1   8
ATOM      8  C   UNL     1       9.221  -1.722  24.421  0.00  0.00    +0.000 C 
BRANCH   8  11
ATOM      9  C   UNL     1      11.013   0.810  24.386  0.00  0.00    +0.000 C 
ATOM     10  C   UNL     1      10.075   0.394  23.288  0.00  0.00    +0.000 C 
ATOM     11  C   UNL     1       9.344  -0.739  23.290  0.00  0.00    +0.000 C 
ATOM     12  C   UNL     1       9.978   1.347  22.127  0.00  0.00    +0.000 C 
ENDBRANCH   8  11
ENDBRANCH   1   8
TORSDOF 5
ENDMDL
MODEL 5
REMARK VINA RESULT:      -4.0      1.633      2.371
REMARK  Name = 
REMARK  8 active torsions:
REMARK  status: ('A' for Active; 'I' for Inactive)
REMARK    1  A    between atoms: C_1  and  C_2
REMARK    2  A    between atoms: C_2  and  C_11
REMARK    3  A    between atoms: C_3  and  C_4
REMARK    4  A    between atoms: C_4  and  C_5
REMARK    5  A    between atoms: C_5  and  C_6
REMARK    6  A    between atoms: C_6  and  C_7
REMARK    7  A    between atoms: C_6  and  C_8
REMARK    8  A    between atoms: C_6  and  O_10
REMARK                            x       y       z     vdW  Elec       q    Type
REMARK                         _______ _______ _______ _____ _____    ______ ____
ROOT
ATOM      1  C   UNL     1       8.380   1.955  23.530  0.00  0.00    +0.000 C 
ENDROOT
BRANCH   1   2
ATOM      2  C   UNL     1       9.839   2.391  23.238  0.00  0.00    +0.000 C 
ATOM      3  C   UNL     1      10.092   3.852  23.638  0.00  0.00    +0.000 C 
BRANCH   2   4
ATOM      4  C   UNL     1      10.804   1.415  23.877  0.00  0.00    +0.000 C 
ATOM      5  C   UNL     1      10.565   0.528  24.855  0.00  0.00    +0.000 C 
ENDBRANCH   2   4
BRANCH   2   6
ATOM      6  O   UNL     1      10.087   2.260  21.833  0.00  0.00    +0.000 OA
ATOM      7  H   UNL     1      10.168   1.315  21.624  0.00  0.00    +0.000 HD
ENDBRANCH   2   6
ENDBRANCH   1   2
BRANCH   1   8
ATOM      8  C   UNL     1       7.761   1.090  22.425  0.00  0.00    +0.000 C 
BRANCH   8  11
ATOM      9  C   UNL     1       9.615  -1.284  21.683  0.00  0.00    +0.000 C 
ATOM     10  C   UNL     1       8.328  -1.394  22.450  0.00  0.00    +0.000 C 
ATOM     11  C   UNL     1       7.560  -0.348  22.815  0.00  0.00    +0.000 C 
ATOM     12  C   UNL     1       7.908  -2.794  22.808  0.00  0.00    +0.000 C 
ENDBRANCH   8  11
ENDBRANCH   1   8
TORSDOF 5
ENDMDL
MODEL 6
REMARK VINA RESULT:      -4.0      2.523      5.070
REMARK  Name = 
REMARK  8 active torsions:
REMARK  status: ('A' for Active; 'I' for Inactive)
REMARK    1  A    between atoms: C_1  and  C_2
REMARK    2  A    between atoms: C_2  and  C_11
REMARK    3  A    between atoms: C_3  and  C_4
REMARK    4  A    between atoms: C_4  and  C_5
REMARK    5  A    between atoms: C_5  and  C_6
REMARK    6  A    between atoms: C_6  and  C_7
REMARK    7  A    between atoms: C_6  and  C_8
REMARK    8  A    between atoms: C_6  and  O_10
REMARK                            x       y       z     vdW  Elec       q    Type
REMARK                         _______ _______ _______ _____ _____    ______ ____
ROOT
ATOM      1  C   UNL     1       7.846   1.536  21.917  0.00  0.00    +0.000 C 
ENDROOT
BRANCH   1   2
ATOM      2  C   UNL     1       9.341   1.292  22.243  0.00  0.00    +0.000 C 
ATOM      3  C   UNL     1       9.627   1.413  23.747  0.00  0.00    +0.000 C 
BRANCH   2   4
ATOM      4  C   UNL     1       9.788  -0.026  21.647  0.00  0.00    +0.000 C 
ATOM      5  C   UNL     1      10.061  -1.177  22.283  0.00  0.00    +0.000 C 
ENDBRANCH   2   4
BRANCH   2   6
ATOM      6  O   UNL     1      10.129   2.271  21.556  0.00  0.00    +0.000 OA
ATOM      7  H   UNL     1      10.776   2.636  22.180  0.00  0.00    +0.000 HD
ENDBRANCH   2   6
ENDBRANCH   1   2
BRANCH   1   8
ATOM      8  C   UNL     1       7.175   2.569  22.832  0.00  0.00    +0.000 C 
BRANCH   8  11
ATOM      9  C   UNL     1       8.740   5.125  23.632  0.00  0.00    +0.000 C 
ATOM     10  C   UNL     1       7.660   5.058  22.590  0.00  0.00    +0.000 C 
ATOM     11  C   UNL     1       7.026   3.930  22.211  0.00  0.00    +0.000 C 
ATOM     12  C   UNL     1       7.292   6.373  21.957  0.00  0.00    +0.000 C 
ENDBRANCH   8  11
ENDBRANCH   1   8
TORSDOF 5
ENDMDL
MODEL 7
REMARK VINA RESULT:      -4.0      1.508      2.145
REMARK  Name = 
REMARK  8 active torsions:
REMARK  status: ('A' for Active; 'I' for Inactive)
REMARK    1  A    between atoms: C_1  and  C_2
REMARK    2  A    between atoms: C_2  and  C_11
REMARK    3  A    between atoms: C_3  and  C_4
REMARK    4  A    between atoms: C_4  and  C_5
REMARK    5  A    between atoms: C_5  and  C_6
REMARK    6  A    between atoms: C_6  and  C_7
REMARK    7  A    between atoms: C_6  and  C_8
REMARK    8  A    between atoms: C_6  and  O_10
REMARK                            x       y       z     vdW  Elec       q    Type
REMARK                         _______ _______ _______ _____ _____    ______ ____
ROOT
ATOM      1  C   UNL     1      10.449   1.044  23.581  0.00  0.00    +0.000 C 
ENDROOT
BRANCH   1   2
ATOM      2  C   UNL     1       9.611   1.301  22.303  0.00  0.00    +0.000 C 
ATOM      3  C   UNL     1       9.486   0.038  21.437  0.00  0.00    +0.000 C 
BRANCH   2   4
ATOM      4  C   UNL     1       8.276   1.910  22.678  0.00  0.00    +0.000 C 
ATOM      5  C   UNL     1       7.703   3.022  22.191  0.00  0.00    +0.000 C 
ENDBRANCH   2   4
BRANCH   2   6
ATOM      6  O   UNL     1      10.254   2.317  21.526  0.00  0.00    +0.000 OA
ATOM      7  H   UNL     1       9.801   2.380  20.670  0.00  0.00    +0.000 HD
ENDBRANCH   2   6
ENDBRANCH   1   2
BRANCH   1   8
ATOM      8  C   UNL     1       9.626   0.517  24.764  0.00  0.00    +0.000 C 
BRANCH   8  11
ATOM      9  C   UNL     1       7.252  -1.378  24.137  0.00  0.00    +0.000 C 
ATOM     10  C   UNL     1       8.586  -1.807  24.676  0.00  0.00    +0.000 C 
ATOM     11  C   UNL     1       9.630  -0.981  24.892  0.00  0.00    +0.000 C 
ATOM     12  C   UNL     1       8.716  -3.274  24.988  0.00  0.00    +0.000 C 
ENDBRANCH   8  11
ENDBRANCH   1   8
TORSDOF 5
ENDMDL
MODEL 8
REMARK VINA RESULT:      -3.9      2.101      5.035
REMARK  Name = 
REMARK  8 active torsions:
REMARK  status: ('A' for Active; 'I' for Inactive)
REMARK    1  A    between atoms: C_1  and  C_2
REMARK    2  A    between atoms: C_2  and  C_11
REMARK    3  A    between atoms: C_3  and  C_4
REMARK    4  A    between atoms: C_4  and  C_5
REMARK    5  A    between atoms: C_5  and  C_6
REMARK    6  A    between atoms: C_6  and  C_7
REMARK    7  A    between atoms: C_6  and  C_8
REMARK    8  A    between atoms: C_6  and  O_10
REMARK                            x       y       z     vdW  Elec       q    Type
REMARK                         _______ _______ _______ _____ _____    ______ ____
ROOT
ATOM      1  C   UNL     1       9.896   1.874  22.109  0.00  0.00    +0.000 C 
ENDROOT
BRANCH   1   2
ATOM      2  C   UNL     1       9.600   0.398  22.478  0.00  0.00    +0.000 C 
ATOM      3  C   UNL     1      10.537  -0.115  23.582  0.00  0.00    +0.000 C 
BRANCH   2   4
ATOM      4  C   UNL     1       8.131   0.236  22.810  0.00  0.00    +0.000 C 
ATOM      5  C   UNL     1       7.104   1.017  22.440  0.00  0.00    +0.000 C 
ENDBRANCH   2   4
BRANCH   2   6
ATOM      6  O   UNL     1       9.788  -0.415  21.315  0.00  0.00    +0.000 OA
ATOM      7  H   UNL     1       9.407   0.049  20.552  0.00  0.00    +0.000 HD
ENDBRANCH   2   6
ENDBRANCH   1   2
BRANCH   1   8
ATOM      8  C   UNL     1      10.131   2.780  23.324  0.00  0.00    +0.000 C 
BRANCH   8  11
ATOM      9  C   UNL     1      10.556   5.826  23.731  0.00  0.00    +0.000 C 
ATOM     10  C   UNL     1      11.639   4.831  23.421  0.00  0.00    +0.000 C 
ATOM     11  C   UNL     1      11.450   3.501  23.302  0.00  0.00    +0.000 C 
ATOM     12  C   UNL     1      13.015   5.412  23.234  0.00  0.00    +0.000 C 
ENDBRANCH   8  11
ENDBRANCH   1   8
TORSDOF 5
ENDMDL
MODEL 9
REMARK VINA RESULT:      -3.8      1.818      2.886
REMARK  Name = 
REMARK  8 active torsions:
REMARK  status: ('A' for Active; 'I' for Inactive)
REMARK    1  A    between atoms: C_1  and  C_2
REMARK    2  A    between atoms: C_2  and  C_11
REMARK    3  A    between atoms: C_3  and  C_4
REMARK    4  A    between atoms: C_4  and  C_5
REMARK    5  A    between atoms: C_5  and  C_6
REMARK    6  A    between atoms: C_6  and  C_7
REMARK    7  A    between atoms: C_6  and  C_8
REMARK    8  A    between atoms: C_6  and  O_10
REMARK                            x       y       z     vdW  Elec       q    Type
REMARK                         _______ _______ _______ _____ _____    ______ ____
ROOT
ATOM      1  C   UNL     1      10.307  -1.195  22.785  0.00  0.00    +0.000 C 
ENDROOT
BRANCH   1   2
ATOM      2  C   UNL     1       9.965   0.234  23.277  0.00  0.00    +0.000 C 
ATOM      3  C   UNL     1      10.910   0.696  24.398  0.00  0.00    +0.000 C 
BRANCH   2   4
ATOM      4  C   UNL     1       9.916   1.184  22.100  0.00  0.00    +0.000 C 
ATOM      5  C   UNL     1       8.840   1.748  21.529  0.00  0.00    +0.000 C 
ENDBRANCH   2   4
BRANCH   2   6
ATOM      6  O   UNL     1       8.627   0.239  23.787  0.00  0.00    +0.000 OA
ATOM      7  H   UNL     1       8.347   1.161  23.901  0.00  0.00    +0.000 HD
ENDBRANCH   2   6
ENDBRANCH   1   2
BRANCH   1   8
ATOM      8  C   UNL     1       9.230  -2.237  23.116  0.00  0.00    +0.000 C 
BRANCH   8  11
ATOM      9  C   UNL     1       7.979  -5.003  23.754  0.00  0.00    +0.000 C 
ATOM     10  C   UNL     1       8.989  -4.289  24.606  0.00  0.00    +0.000 C 
ATOM     11  C   UNL     1       9.568  -3.113  24.290  0.00  0.00    +0.000 C 
ATOM     12  C   UNL     1       9.344  -4.975  25.898  0.00  0.00    +0.000 C 
ENDBRANCH   8  11
ENDBRANCH   1   8
TORSDOF 5
ENDMDL
