MODEL 1
REMARK VINA RESULT:      -6.6      0.000      0.000
REMARK  Name = 
REMARK  1 active torsions:
REMARK  status: ('A' for Active; 'I' for Inactive)
REMARK    1  A    between atoms: C_4  and  C_7
REMARK                            x       y       z     vdW  Elec       q    Type
REMARK                         _______ _______ _______ _____ _____    ______ ____
ROOT
ATOM      1  C   UNL     1       9.223  -1.811  23.230  0.00  0.00    +0.000 A 
ATOM      2  O   UNL     1       8.235  -2.124  22.499  0.00  0.00    +0.000 OA
ATOM      3  C   UNL     1       7.616  -3.208  22.690  0.00  0.00    +0.000 A 
ATOM      4  C   UNL     1       6.505  -3.469  21.884  0.00  0.00    +0.000 A 
ATOM      5  C   UNL     1       5.755  -4.641  22.062  0.00  0.00    +0.000 A 
ATOM      6  C   UNL     1       6.107  -5.548  23.061  0.00  0.00    +0.000 A 
ATOM      7  C   UNL     1       7.220  -5.310  23.866  0.00  0.00    +0.000 A 
ATOM      8  C   UNL     1       7.990  -4.153  23.668  0.00  0.00    +0.000 A 
ATOM      9  C   UNL     1       9.128  -3.911  24.402  0.00  0.00    +0.000 A 
ATOM     10  C   UNL     1       9.765  -2.718  24.151  0.00  0.00    +0.000 A 
ENDROOT
BRANCH   1  14
ATOM     11  C   UNL     1      10.432   2.318  22.900  0.00  0.00    +0.000 A 
ATOM     12  C   UNL     1      10.667   1.620  24.075  0.00  0.00    +0.000 A 
ATOM     13  C   UNL     1      10.308   0.272  24.170  0.00  0.00    +0.000 A 
ATOM     14  C   UNL     1       9.698  -0.414  23.096  0.00  0.00    +0.000 A 
ATOM     15  C   UNL     1       9.493   0.314  21.909  0.00  0.00    +0.000 A 
ATOM     16  C   UNL     1       9.854   1.666  21.813  0.00  0.00    +0.000 A 
ENDBRANCH   1  14
TORSDOF 1
ENDMDL
MODEL 2
REMARK VINA RESULT:      -6.4      2.026      6.016
REMARK  Name = 
REMARK  1 active torsions:
REMARK  status: ('A' for Active; 'I' for Inactive)
REMARK    1  A    between atoms: C_4  and  C_7
REMARK                            x       y       z     vdW  Elec       q    Type
REMARK                         _______ _______ _______ _____ _____    ______ ____
ROOT
ATOM      1  C   UNL     1       9.246  -2.122  24.028  0.00  0.00    +0.000 A 
ATOM      2  O   UNL     1       9.763  -1.085  24.544  0.00  0.00    +0.000 OA
ATOM      3  C   UNL     1       9.945  -0.047  23.847  0.00  0.00    +0.000 A 
ATOM      4  C   UNL     1      10.471   1.078  24.488  0.00  0.00    +0.000 A 
ATOM      5  C   UNL     1      10.672   2.272  23.781  0.00  0.00    +0.000 A 
ATOM      6  C   UNL     1      10.329   2.348  22.431  0.00  0.00    +0.000 A 
ATOM      7  C   UNL     1       9.815   1.232  21.772  0.00  0.00    +0.000 A 
ATOM      8  C   UNL     1       9.644   0.026  22.471  0.00  0.00    +0.000 A 
ATOM      9  C   UNL     1       9.195  -1.113  21.844  0.00  0.00    +0.000 A 
ATOM     10  C   UNL     1       9.018  -2.214  22.649  0.00  0.00    +0.000 A 
ENDROOT
BRANCH   1  14
ATOM     11  C   UNL     1       7.913  -5.242  26.694  0.00  0.00    +0.000 A 
ATOM     12  C   UNL     1       8.944  -5.490  25.799  0.00  0.00    +0.000 A 
ATOM     13  C   UNL     1       9.400  -4.469  24.960  0.00  0.00    +0.000 A 
ATOM     14  C   UNL     1       8.836  -3.174  24.987  0.00  0.00    +0.000 A 
ATOM     15  C   UNL     1       7.807  -2.947  25.921  0.00  0.00    +0.000 A 
ATOM     16  C   UNL     1       7.350  -3.970  26.764  0.00  0.00    +0.000 A 
ENDBRANCH   1  14
TORSDOF 1
ENDMDL
MODEL 3
REMARK VINA RESULT:      -6.2      0.978      5.766
REMARK  Name = 
REMARK  1 active torsions:
REMARK  status: ('A' for Active; 'I' for Inactive)
REMARK    1  A    between atoms: C_4  and  C_7
REMARK                            x       y       z     vdW  Elec       q    Type
REMARK                         _______ _______ _______ _____ _____    ______ ____
ROOT
ATOM      1  C   UNL     1       8.071  -2.048  23.487  0.00  0.00    +0.000 A 
ATOM      2  O   UNL     1       8.324  -1.174  22.605  0.00  0.00    +0.000 OA
ATOM      3  C   UNL     1       9.003  -0.149  22.896  0.00  0.00    +0.000 A 
ATOM      4  C   UNL     1       9.290   0.751  21.866  0.00  0.00    +0.000 A 
ATOM      5  C   UNL     1      10.062   1.894  22.113  0.00  0.00    +0.000 A 
ATOM      6  C   UNL     1      10.565   2.131  23.393  0.00  0.00    +0.000 A 
ATOM      7  C   UNL     1      10.278   1.251  24.435  0.00  0.00    +0.000 A 
ATOM      8  C   UNL     1       9.477   0.123  24.195  0.00  0.00    +0.000 A 
ATOM      9  C   UNL     1       9.124  -0.738  25.209  0.00  0.00    +0.000 A 
ATOM     10  C   UNL     1       8.382  -1.834  24.837  0.00  0.00    +0.000 A 
ENDROOT
BRANCH   1  14
ATOM     11  C   UNL     1       6.568  -5.757  21.871  0.00  0.00    +0.000 A 
ATOM     12  C   UNL     1       7.505  -5.777  22.894  0.00  0.00    +0.000 A 
ATOM     13  C   UNL     1       7.965  -4.576  23.442  0.00  0.00    +0.000 A 
ATOM     14  C   UNL     1       7.508  -3.322  22.980  0.00  0.00    +0.000 A 
ATOM     15  C   UNL     1       6.540  -3.334  21.957  0.00  0.00    +0.000 A 
ATOM     16  C   UNL     1       6.078  -4.538  21.408  0.00  0.00    +0.000 A 
ENDBRANCH   1  14
TORSDOF 1
ENDMDL
MODEL 4
REMARK VINA RESULT:      -6.0      1.217      5.971
REMARK  Name = 
REMARK  1 active torsions:
REMARK  status: ('A' for Active; 'I' for Inactive)
REMARK    1  A    between atoms: C_4  and  C_7
REMARK                            x       y       z     vdW  Elec       q    Type
REMARK                         _______ _______ _______ _____ _____    ______ ____
ROOT
ATOM      1  C   UNL     1       8.525  -1.805  23.041  0.00  0.00    +0.000 A 
ATOM      2  O   UNL     1       8.504  -0.898  23.927  0.00  0.00    +0.000 OA
ATOM      3  C   UNL     1       8.975   0.248  23.681  0.00  0.00    +0.000 A 
ATOM      4  C   UNL     1       8.874   1.217  24.683  0.00  0.00    +0.000 A 
ATOM      5  C   UNL     1       9.350   2.518  24.467  0.00  0.00    +0.000 A 
ATOM      6  C   UNL     1       9.914   2.857  23.237  0.00  0.00    +0.000 A 
ATOM      7  C   UNL     1      10.035   1.900  22.230  0.00  0.00    +0.000 A 
ATOM      8  C   UNL     1       9.588   0.589  22.458  0.00  0.00    +0.000 A 
ATOM      9  C   UNL     1       9.741  -0.399  21.512  0.00  0.00    +0.000 A 
ATOM     10  C   UNL     1       9.214  -1.628  21.833  0.00  0.00    +0.000 A 
ENDROOT
BRANCH   1  14
ATOM     11  C   UNL     1       6.332  -5.416  23.916  0.00  0.00    +0.000 A 
ATOM     12  C   UNL     1       6.757  -4.596  24.952  0.00  0.00    +0.000 A 
ATOM     13  C   UNL     1       7.436  -3.408  24.666  0.00  0.00    +0.000 A 
ATOM     14  C   UNL     1       7.715  -3.009  23.340  0.00  0.00    +0.000 A 
ATOM     15  C   UNL     1       7.252  -3.850  22.310  0.00  0.00    +0.000 A 
ATOM     16  C   UNL     1       6.569  -5.041  22.596  0.00  0.00    +0.000 A 
ENDBRANCH   1  14
TORSDOF 1
ENDMDL
MODEL 5
REMARK VINA RESULT:      -5.9      1.434      2.287
REMARK  Name = 
REMARK  1 active torsions:
REMARK  status: ('A' for Active; 'I' for Inactive)
REMARK    1  A    between atoms: C_4  and  C_7
REMARK                            x       y       z     vdW  Elec       q    Type
REMARK                         _______ _______ _______ _____ _____    ______ ____
ROOT
ATOM      1  C   UNL     1       8.424  -1.496  23.550  0.00  0.00    +0.000 A 
ATOM      2  O   UNL     1       8.295  -1.800  24.774  0.00  0.00    +0.000 OA
ATOM      3  C   UNL     1       7.875  -2.944  25.108  0.00  0.00    +0.000 A 
ATOM      4  C   UNL     1       7.805  -3.234  26.473  0.00  0.00    +0.000 A 
ATOM      5  C   UNL     1       7.375  -4.494  26.913  0.00  0.00    +0.000 A 
ATOM      6  C   UNL     1       7.029  -5.475  25.983  0.00  0.00    +0.000 A 
ATOM      7  C   UNL     1       7.080  -5.199  24.617  0.00  0.00    +0.000 A 
ATOM      8  C   UNL     1       7.480  -3.927  24.178  0.00  0.00    +0.000 A 
ATOM      9  C   UNL     1       7.489  -3.597  22.842  0.00  0.00    +0.000 A 
ATOM     10  C   UNL     1       7.952  -2.338  22.535  0.00  0.00    +0.000 A 
ENDROOT
BRANCH   1  14
ATOM     11  C   UNL     1      10.433   2.251  22.807  0.00  0.00    +0.000 A 
ATOM     12  C   UNL     1      10.500   1.667  24.064  0.00  0.00    +0.000 A 
ATOM     13  C   UNL     1       9.879   0.436  24.295  0.00  0.00    +0.000 A 
ATOM     14  C   UNL     1       9.169  -0.244  23.280  0.00  0.00    +0.000 A 
ATOM     15  C   UNL     1       9.138   0.362  22.009  0.00  0.00    +0.000 A 
ATOM     16  C   UNL     1       9.762   1.597  21.777  0.00  0.00    +0.000 A 
ENDBRANCH   1  14
TORSDOF 1
ENDMDL
MODEL 6
REMARK VINA RESULT:      -5.8      2.796      7.308
REMARK  Name = 
REMARK  1 active torsions:
REMARK  status: ('A' for Active; 'I' for Inactive)
REMARK    1  A    between atoms: C_4  and  C_7
REMARK                            x       y       z     vdW  Elec       q    Type
REMARK                         _______ _______ _______ _____ _____    ______ ____
ROOT
ATOM      1  C   UNL     1       9.481   1.631  23.976  0.00  0.00    +0.000 A 
ATOM      2  O   UNL     1      10.508   2.260  23.581  0.00  0.00    +0.000 OA
ATOM      3  C   UNL     1      10.584   3.514  23.719  0.00  0.00    +0.000 A 
ATOM      4  C   UNL     1      11.764   4.140  23.310  0.00  0.00    +0.000 A 
ATOM      5  C   UNL     1      11.926   5.525  23.462  0.00  0.00    +0.000 A 
ATOM      6  C   UNL     1      10.910   6.285  24.042  0.00  0.00    +0.000 A 
ATOM      7  C   UNL     1       9.721   5.679  24.446  0.00  0.00    +0.000 A 
ATOM      8  C   UNL     1       9.546   4.298  24.264  0.00  0.00    +0.000 A 
ATOM      9  C   UNL     1       8.366   3.672  24.595  0.00  0.00    +0.000 A 
ATOM     10  C   UNL     1       8.337   2.308  24.420  0.00  0.00    +0.000 A 
ENDROOT
BRANCH   1  14
ATOM     11  C   UNL     1       9.690  -2.679  23.976  0.00  0.00    +0.000 A 
ATOM     12  C   UNL     1      10.304  -1.956  22.962  0.00  0.00    +0.000 A 
ATOM     13  C   UNL     1      10.266  -0.559  22.982  0.00  0.00    +0.000 A 
ATOM     14  C   UNL     1       9.611   0.156  24.010  0.00  0.00    +0.000 A 
ATOM     15  C   UNL     1       9.018  -0.605  25.036  0.00  0.00    +0.000 A 
ATOM     16  C   UNL     1       9.056  -2.006  25.017  0.00  0.00    +0.000 A 
ENDBRANCH   1  14
TORSDOF 1
ENDMDL
MODEL 7
REMARK VINA RESULT:      -5.8      2.338      4.262
REMARK  Name = 
REMARK  1 active torsions:
REMARK  status: ('A' for Active; 'I' for Inactive)
REMARK    1  A    between atoms: C_4  and  C_7
REMARK                            x       y       z     vdW  Elec       q    Type
REMARK                         _______ _______ _______ _____ _____    ______ ____
ROOT
ATOM      1  C   UNL     1       9.076   2.170  23.583  0.00  0.00    +0.000 A 
ATOM      2  O   UNL     1       9.696   1.123  23.940  0.00  0.00    +0.000 OA
ATOM      3  C   UNL     1       9.215  -0.019  23.697  0.00  0.00    +0.000 A 
ATOM      4  C   UNL     1       9.971  -1.133  24.072  0.00  0.00    +0.000 A 
ATOM      5  C   UNL     1       9.511  -2.430  23.805  0.00  0.00    +0.000 A 
ATOM      6  C   UNL     1       8.295  -2.615  23.146  0.00  0.00    +0.000 A 
ATOM      7  C   UNL     1       7.521  -1.516  22.776  0.00  0.00    +0.000 A 
ATOM      8  C   UNL     1       7.967  -0.218  23.072  0.00  0.00    +0.000 A 
ATOM      9  C   UNL     1       7.206   0.889  22.775  0.00  0.00    +0.000 A 
ATOM     10  C   UNL     1       7.775   2.107  23.065  0.00  0.00    +0.000 A 
ENDROOT
BRANCH   1  14
ATOM     11  C   UNL     1      11.290   5.873  23.665  0.00  0.00    +0.000 A 
ATOM     12  C   UNL     1       9.939   5.867  23.980  0.00  0.00    +0.000 A 
ATOM     13  C   UNL     1       9.230   4.663  23.988  0.00  0.00    +0.000 A 
ATOM     14  C   UNL     1       9.848   3.431  23.676  0.00  0.00    +0.000 A 
ATOM     15  C   UNL     1      11.225   3.466  23.383  0.00  0.00    +0.000 A 
ATOM     16  C   UNL     1      11.937   4.674  23.376  0.00  0.00    +0.000 A 
ENDBRANCH   1  14
TORSDOF 1
ENDMDL
MODEL 8
REMARK VINA RESULT:      -5.8      2.689      4.610
REMARK  Name = 
REMARK  1 active torsions:
REMARK  status: ('A' for Active; 'I' for Inactive)
REMARK    1  A    between atoms: C_4  and  C_7
REMARK                            x       y       z     vdW  Elec       q    Type
REMARK                         _______ _______ _______ _____ _____    ______ ____
ROOT
ATOM      1  C   UNL     1       8.729   2.106  22.812  0.00  0.00    +0.000 A 
ATOM      2  O   UNL     1       8.468   1.391  23.825  0.00  0.00    +0.000 OA
ATOM      3  C   UNL     1       8.819   0.178  23.861  0.00  0.00    +0.000 A 
ATOM      4  C   UNL     1       8.547  -0.541  25.027  0.00  0.00    +0.000 A 
ATOM      5  C   UNL     1       8.936  -1.883  25.145  0.00  0.00    +0.000 A 
ATOM      6  C   UNL     1       9.615  -2.505  24.097  0.00  0.00    +0.000 A 
ATOM      7  C   UNL     1       9.884  -1.808  22.921  0.00  0.00    +0.000 A 
ATOM      8  C   UNL     1       9.466  -0.474  22.790  0.00  0.00    +0.000 A 
ATOM      9  C   UNL     1       9.661   0.231  21.625  0.00  0.00    +0.000 A 
ATOM     10  C   UNL     1       9.257   1.546  21.640  0.00  0.00    +0.000 A 
ENDROOT
BRANCH   1  14
ATOM     11  C   UNL     1       8.223   6.377  23.166  0.00  0.00    +0.000 A 
ATOM     12  C   UNL     1       7.333   5.635  22.403  0.00  0.00    +0.000 A 
ATOM     13  C   UNL     1       7.476   4.247  22.317  0.00  0.00    +0.000 A 
ATOM     14  C   UNL     1       8.515   3.561  22.986  0.00  0.00    +0.000 A 
ATOM     15  C   UNL     1       9.389   4.338  23.771  0.00  0.00    +0.000 A 
ATOM     16  C   UNL     1       9.245   5.730  23.858  0.00  0.00    +0.000 A 
ENDBRANCH   1  14
TORSDOF 1
ENDMDL
MODEL 9
REMARK VINA RESULT:      -5.8      1.248      5.920
REMARK  Name = 
REMARK  1 active torsions:
REMARK  status: ('A' for Active; 'I' for Inactive)
REMARK    1  A    between atoms: C_4  and  C_7
REMARK                            x       y       z     vdW  Elec       q    Type
REMARK                         _______ _______ _______ _____ _____    ______ ____
ROOT
ATOM      1  C   UNL     1       7.822  -2.693  24.028  0.00  0.00    +0.000 A 
ATOM      2  O   UNL     1       8.177  -1.881  23.121  0.00  0.00    +0.000 OA
ATOM      3  C   UNL     1       8.918  -0.896  23.399  0.00  0.00    +0.000 A 
ATOM      4  C   UNL     1       9.316  -0.069  22.346  0.00  0.00    +0.000 A 
ATOM      5  C   UNL     1      10.162   1.025  22.579  0.00  0.00    +0.000 A 
ATOM      6  C   UNL     1      10.627   1.283  23.869  0.00  0.00    +0.000 A 
ATOM      7  C   UNL     1      10.230   0.475  24.934  0.00  0.00    +0.000 A 
ATOM      8  C   UNL     1       9.357  -0.600  24.706  0.00  0.00    +0.000 A 
ATOM      9  C   UNL     1       8.897  -1.385  25.738  0.00  0.00    +0.000 A 
ATOM     10  C   UNL     1       8.090  -2.440  25.380  0.00  0.00    +0.000 A 
ENDROOT
BRANCH   1  14
ATOM     11  C   UNL     1       5.823  -6.225  22.561  0.00  0.00    +0.000 A 
ATOM     12  C   UNL     1       6.785  -5.599  21.781  0.00  0.00    +0.000 A 
ATOM     13  C   UNL     1       7.457  -4.476  22.270  0.00  0.00    +0.000 A 
ATOM     14  C   UNL     1       7.185  -3.943  23.550  0.00  0.00    +0.000 A 
ATOM     15  C   UNL     1       6.221  -4.613  24.328  0.00  0.00    +0.000 A 
ATOM     16  C   UNL     1       5.547  -5.740  23.837  0.00  0.00    +0.000 A 
ENDBRANCH   1  14
TORSDOF 1
ENDMDL
