REMARK  Name = 
REMARK  7 active torsions:
REMARK  status: ('A' for Active; 'I' for Inactive)
REMARK    1  A    between atoms: C_1  and  C_2
REMARK    2  A    between atoms: C_5  and  C_8
REMARK    3  A    between atoms: C_8  and  C_10
REMARK    4  A    between atoms: C_10  and  C_11
REMARK    5  A    between atoms: C_11  and  C_12
REMARK    6  A    between atoms: C_13  and  C_14
REMARK    7  A    between atoms: C_13  and  C_15
REMARK                            x       y       z     vdW  Elec       q    Type
REMARK                         _______ _______ _______ _____ _____    ______ ____
ROOT
ATOM      1  C   UNL     1      -3.312  -0.247  -0.143  0.00  0.00    +0.000 C 
ATOM      2  C   UNL     1      -3.785  -1.252  -0.908  0.00  0.00    +0.000 C 
ENDROOT
BRANCH   1   7
ATOM      3  C   UNL     1       2.265  -1.286   1.489  0.00  0.00    +0.000 C 
ATOM      4  C   UNL     1       0.870  -0.984   1.025  0.00  0.00    +0.000 C 
ATOM      5  C   UNL     1       0.542  -0.991  -0.275  0.00  0.00    +0.000 C 
ATOM      6  C   UNL     1      -0.844  -0.732  -0.788  0.00  0.00    +0.000 C 
ATOM      7  C   UNL     1      -1.831  -0.152   0.259  0.00  0.00    +0.000 C 
ATOM      8  C   UNL     1      -1.602  -0.806   1.632  0.00  0.00    +0.000 C 
ATOM      9  C   UNL     1      -0.146  -0.690   2.100  0.00  0.00    +0.000 C 
ENDBRANCH   1   7
BRANCH   1  10
ATOM     10  C   UNL     1      -4.216   0.874   0.388  0.00  0.00    +0.000 C 
BRANCH  10  11
ATOM     11  C   UNL     1      -5.685   0.762  -0.059  0.00  0.00    +0.000 C 
BRANCH  11  12
ATOM     12  C   UNL     1      -6.635   1.819   0.433  0.00  0.00    +0.000 C 
ATOM     13  C   UNL     1      -7.949   1.824   0.114  0.00  0.00    +0.000 C 
ATOM     14  C   UNL     1      -8.608   0.787  -0.761  0.00  0.00    +0.000 C 
ATOM     15  C   UNL     1      -8.885   2.887   0.617  0.00  0.00    +0.000 C 
ENDBRANCH  11  12
ENDBRANCH  10  11
ENDBRANCH   1  10
TORSDOF 4
