REMARK  Name = 
REMARK  4 active torsions:
REMARK  status: ('A' for Active; 'I' for Inactive)
REMARK    1  A    between atoms: C_5  and  O_7
REMARK    2  A    between atoms: C_15  and  C_19
REMARK    3  A    between atoms: C_17  and  O_18
REMARK    4  A    between atoms: C_19  and  O_20
REMARK                            x       y       z     vdW  Elec       q    Type
REMARK                         _______ _______ _______ _____ _____    ______ ____
ROOT
ATOM      1  C   UNL     1       3.714   1.084   0.024  0.00  0.00    +0.000 A 
ATOM      2  C   UNL     1       2.494   1.763   0.023  0.00  0.00    +0.000 A 
ATOM      3  C   UNL     1       1.290   1.044   0.009  0.00  0.00    +0.000 A 
ATOM      4  C   UNL     1       1.297  -0.347   0.000  0.00  0.00    +0.000 A 
ATOM      5  C   UNL     1       2.531  -1.020  -0.005  0.00  0.00    +0.000 A 
ATOM      6  C   UNL     1       3.730  -0.309   0.007  0.00  0.00    +0.000 A 
ATOM      7  C   UNL     1       0.024  -1.100  -0.000  0.00  0.00    +0.000 C 
ATOM      8  O   UNL     1       0.094  -2.325  -0.013  0.00  0.00    +0.000 OA
ATOM      9  C   UNL     1      -1.269  -0.367   0.002  0.00  0.00    +0.000 A 
ATOM     10  C   UNL     1      -1.259   1.031  -0.022  0.00  0.00    +0.000 A 
ATOM     11  C   UNL     1       0.014   1.779   0.002  0.00  0.00    +0.000 C 
ATOM     12  O   UNL     1       0.010   3.006   0.019  0.00  0.00    +0.000 OA
ATOM     13  C   UNL     1      -2.462   1.762  -0.062  0.00  0.00    +0.000 A 
ATOM     14  C   UNL     1      -3.697   1.104  -0.057  0.00  0.00    +0.000 A 
ATOM     15  C   UNL     1      -3.705  -0.295  -0.004  0.00  0.00    +0.000 A 
ATOM     16  C   UNL     1      -2.508  -1.022   0.020  0.00  0.00    +0.000 A 
ENDROOT
BRANCH   5  17
ATOM     17  O   UNL     1       2.640  -2.384  -0.022  0.00  0.00    +0.000 OA
ATOM     18  H   UNL     1       1.729  -2.760  -0.030  0.00  0.00    +0.000 HD
ENDBRANCH   5  17
BRANCH  16  19
ATOM     19  O   UNL     1      -2.578  -2.384   0.063  0.00  0.00    +0.000 OA
ATOM     20  H   UNL     1      -3.503  -2.679   0.072  0.00  0.00    +0.000 HD
ENDBRANCH  16  19
BRANCH  14  21
ATOM     21  C   UNL     1      -4.997   1.866  -0.068  0.00  0.00    +0.000 C 
BRANCH  21  22
ATOM     22  O   UNL     1      -5.787   1.505  -1.194  0.00  0.00    +0.000 OA
ATOM     23  H   UNL     1      -5.287   1.751  -1.991  0.00  0.00    +0.000 HD
ENDBRANCH  21  22
ENDBRANCH  14  21
TORSDOF 4
