REMARK  Name = 
REMARK  11 active torsions:
REMARK  status: ('A' for Active; 'I' for Inactive)
REMARK    1  A    between atoms: C_2  and  O_21
REMARK    2  A    between atoms: C_3  and  C_13
REMARK    3  A    between atoms: C_7  and  O_12
REMARK    4  A    between atoms: C_9  and  O_11
REMARK    5  A    between atoms: C_15  and  O_20
REMARK    6  A    between atoms: C_16  and  O_19
REMARK    7  A    between atoms: O_21  and  C_22
REMARK    8  A    between atoms: C_22  and  C_24
REMARK    9  A    between atoms: C_26  and  O_32
REMARK   10  A    between atoms: C_27  and  O_31
REMARK   11  A    between atoms: C_28  and  O_30
REMARK                            x       y       z     vdW  Elec       q    Type
REMARK                         _______ _______ _______ _____ _____    ______ ____
ROOT
ATOM      1  C   UNL     1       1.922   1.250   0.194  0.00  0.00    +0.000 C 
ATOM      2  C   UNL     1       3.033   0.202   0.290  0.00  0.00    +0.000 C 
ATOM      3  C   UNL     1       2.650  -1.036  -0.561  0.00  0.00    +0.000 C 
ATOM      4  O   UNL     1       1.464  -1.642   0.009  0.00  0.00    +0.000 OA
ATOM      5  C   UNL     1       0.408  -0.775   0.176  0.00  0.00    +0.000 A 
ATOM      6  C   UNL     1      -0.858  -1.367   0.189  0.00  0.00    +0.000 A 
ATOM      7  C   UNL     1      -1.986  -0.557   0.152  0.00  0.00    +0.000 A 
ATOM      8  C   UNL     1      -1.868   0.828   0.142  0.00  0.00    +0.000 A 
ATOM      9  C   UNL     1      -0.600   1.406   0.179  0.00  0.00    +0.000 A 
ATOM     10  C   UNL     1       0.556   0.618   0.207  0.00  0.00    +0.000 A 
ENDROOT
BRANCH   3  11
ATOM     11  C   UNL     1       2.551  -0.831  -2.084  0.00  0.00    +0.000 A 
ATOM     12  C   UNL     1       3.694  -0.459  -2.815  0.00  0.00    +0.000 A 
ATOM     13  C   UNL     1       3.604  -0.210  -4.183  0.00  0.00    +0.000 A 
ATOM     14  C   UNL     1       2.391  -0.344  -4.849  0.00  0.00    +0.000 A 
ATOM     15  C   UNL     1       1.262  -0.756  -4.170  0.00  0.00    +0.000 A 
ATOM     16  C   UNL     1       1.350  -1.015  -2.800  0.00  0.00    +0.000 A 
BRANCH  14  17
ATOM     17  O   UNL     1       2.305  -0.078  -6.184  0.00  0.00    +0.000 OA
ATOM     18  H   UNL     1       3.208   0.198  -6.434  0.00  0.00    +0.000 HD
ENDBRANCH  14  17
BRANCH  13  19
ATOM     19  O   UNL     1       4.690   0.174  -4.921  0.00  0.00    +0.000 OA
ATOM     20  H   UNL     1       5.464   0.216  -4.334  0.00  0.00    +0.000 HD
ENDBRANCH  13  19
ENDBRANCH   3  11
BRANCH   7  21
ATOM     21  O   UNL     1      -3.241  -1.088   0.082  0.00  0.00    +0.000 OA
ATOM     22  H   UNL     1      -3.168  -2.057   0.043  0.00  0.00    +0.000 HD
ENDBRANCH   7  21
BRANCH   9  23
ATOM     23  O   UNL     1      -0.463   2.765   0.147  0.00  0.00    +0.000 OA
ATOM     24  H   UNL     1      -1.340   3.162   0.011  0.00  0.00    +0.000 HD
ENDBRANCH   9  23
BRANCH   2  25
ATOM     25  O   UNL     1       4.312   0.759  -0.097  0.00  0.00    +0.000 OA
BRANCH  25  26
ATOM     26  C   UNL     1       4.958   1.469   0.863  0.00  0.00    +0.000 C 
ATOM     27  O   UNL     1       4.568   1.635   2.008  0.00  0.00    +0.000 OA
BRANCH  26  28
ATOM     28  C   UNL     1       6.246   2.035   0.370  0.00  0.00    +0.000 A 
ATOM     29  C   UNL     1       7.058   2.718   1.298  0.00  0.00    +0.000 A 
ATOM     30  C   UNL     1       8.263   3.277   0.884  0.00  0.00    +0.000 A 
ATOM     31  C   UNL     1       8.665   3.163  -0.441  0.00  0.00    +0.000 A 
ATOM     32  C   UNL     1       7.868   2.488  -1.357  0.00  0.00    +0.000 A 
ATOM     33  C   UNL     1       6.658   1.923  -0.966  0.00  0.00    +0.000 A 
BRANCH  30  34
ATOM     34  O   UNL     1       9.085   3.951   1.741  0.00  0.00    +0.000 OA
ATOM     35  H   UNL     1       8.677   3.952   2.626  0.00  0.00    +0.000 HD
ENDBRANCH  30  34
BRANCH  32  36
ATOM     36  O   UNL     1       8.267   2.378  -2.658  0.00  0.00    +0.000 OA
ATOM     37  H   UNL     1       9.119   2.862  -2.697  0.00  0.00    +0.000 HD
ENDBRANCH  32  36
BRANCH  31  38
ATOM     38  O   UNL     1       9.843   3.715  -0.863  0.00  0.00    +0.000 OA
ATOM     39  H   UNL     1      10.213   4.144  -0.062  0.00  0.00    +0.000 HD
ENDBRANCH  31  38
ENDBRANCH  26  28
ENDBRANCH  25  26
ENDBRANCH   2  25
TORSDOF 11
