REMARK  Name = 
REMARK  14 active torsions:
REMARK  status: ('A' for Active; 'I' for Inactive)
REMARK    1  A    between atoms: C_1  and  O_2
REMARK    2  A    between atoms: O_2  and  C_3
REMARK    3  A    between atoms: C_4  and  O_43
REMARK    4  A    between atoms: C_6  and  C_10
REMARK    5  A    between atoms: C_8  and  O_9
REMARK    6  A    between atoms: C_11  and  O_42
REMARK    7  A    between atoms: C_16  and  C_22
REMARK    8  A    between atoms: C_17  and  O_21
REMARK    9  A    between atoms: C_19  and  O_20
REMARK   10  A    between atoms: C_23  and  O_41
REMARK   11  A    between atoms: C_24  and  C_34
REMARK   12  A    between atoms: C_28  and  O_33
REMARK   13  A    between atoms: C_30  and  O_32
REMARK   14  A    between atoms: C_37  and  O_40
REMARK                            x       y       z     vdW  Elec       q    Type
REMARK                         _______ _______ _______ _____ _____    ______ ____
ROOT
ATOM      1  C   UNL     1       5.523  -2.066   3.066  0.00  0.00    +0.000 C 
ATOM      2  C   UNL     1       5.530  -2.525   4.567  0.00  0.00    +0.000 C 
ATOM      3  C   UNL     1       4.839  -3.861   4.718  0.00  0.00    +0.000 C 
ATOM      4  C   UNL     1       3.709  -3.874   3.718  0.00  0.00    +0.000 A 
ATOM      5  C   UNL     1       4.090  -4.308   2.470  0.00  0.00    +0.000 A 
ATOM      6  O   UNL     1       5.011  -3.085   2.023  0.00  0.00    +0.000 OA
ATOM      7  C   UNL     1       3.075  -4.594   1.463  0.00  0.00    +0.000 A 
ATOM      8  C   UNL     1       2.285  -3.499   1.254  0.00  0.00    +0.000 A 
ATOM      9  C   UNL     1       2.066  -2.661   2.347  0.00  0.00    +0.000 A 
ATOM     10  C   UNL     1       2.661  -2.955   3.613  0.00  0.00    +0.000 A 
ENDROOT
BRANCH   7  11
ATOM     11  C   UNL     1       2.419  -6.115   1.127  0.00  0.00    +0.000 C 
ATOM     12  C   UNL     1       3.635  -6.141   0.107  0.00  0.00    +0.000 C 
ATOM     13  C   UNL     1       4.303  -7.451   0.656  0.00  0.00    +0.000 C 
ATOM     14  O   UNL     1       4.125  -8.468  -0.271  0.00  0.00    +0.000 OA
ATOM     15  C   UNL     1       2.746  -8.529  -0.382  0.00  0.00    +0.000 A 
ATOM     16  C   UNL     1       2.390  -9.632  -1.160  0.00  0.00    +0.000 A 
ATOM     17  C   UNL     1       1.050  -9.875  -1.371  0.00  0.00    +0.000 A 
ATOM     18  C   UNL     1       0.108  -9.048  -0.763  0.00  0.00    +0.000 A 
ATOM     19  C   UNL     1       0.489  -7.901   0.032  0.00  0.00    +0.000 A 
ATOM     20  C   UNL     1       1.834  -7.543   0.223  0.00  0.00    +0.000 A 
BRANCH  13  21
ATOM     21  C   UNL     1       5.524  -7.566   1.521  0.00  0.00    +0.000 A 
ATOM     22  C   UNL     1       5.490  -8.598   2.500  0.00  0.00    +0.000 A 
ATOM     23  C   UNL     1       6.371  -8.598   3.574  0.00  0.00    +0.000 A 
ATOM     24  C   UNL     1       7.289  -7.576   3.659  0.00  0.00    +0.000 A 
ATOM     25  C   UNL     1       7.405  -6.613   2.651  0.00  0.00    +0.000 A 
ATOM     26  C   UNL     1       6.526  -6.609   1.570  0.00  0.00    +0.000 A 
BRANCH  24  27
ATOM     27  O   UNL     1       8.058  -7.438   4.772  0.00  0.00    +0.000 OA
ATOM     28  H   UNL     1       7.603  -7.902   5.496  0.00  0.00    +0.000 HD
ENDBRANCH  24  27
ENDBRANCH  13  21
BRANCH  19  29
ATOM     29  O   UNL     1      -0.511  -7.166   0.599  0.00  0.00    +0.000 OA
ATOM     30  H   UNL     1      -1.357  -7.609   0.392  0.00  0.00    +0.000 HD
ENDBRANCH  19  29
BRANCH  17  31
ATOM     31  O   UNL     1       0.650 -10.899  -2.142  0.00  0.00    +0.000 OA
ATOM     32  H   UNL     1       1.434 -11.307  -2.557  0.00  0.00    +0.000 HD
ENDBRANCH  17  31
BRANCH  12  33
ATOM     33  O   UNL     1       3.144  -5.983  -1.268  0.00  0.00    +0.000 OA
ATOM     34  H   UNL     1       2.172  -5.955  -1.280  0.00  0.00    +0.000 HD
ENDBRANCH  12  33
ENDBRANCH   7  11
BRANCH   1  38
ATOM     35  C   UNL     1       5.270   2.307   2.491  0.00  0.00    +0.000 A 
ATOM     36  C   UNL     1       5.074   1.786   3.762  0.00  0.00    +0.000 A 
ATOM     37  C   UNL     1       5.026   0.397   3.972  0.00  0.00    +0.000 A 
ATOM     38  C   UNL     1       5.118  -0.536   2.898  0.00  0.00    +0.000 A 
ATOM     39  C   UNL     1       5.113   0.027   1.609  0.00  0.00    +0.000 A 
ATOM     40  C   UNL     1       5.234   1.416   1.421  0.00  0.00    +0.000 A 
BRANCH  40  41
ATOM     41  O   UNL     1       5.324   1.872   0.138  0.00  0.00    +0.000 OA
ATOM     42  H   UNL     1       6.210   1.606  -0.150  0.00  0.00    +0.000 HD
ENDBRANCH  40  41
BRANCH  35  44
ATOM     43  C   UNL     1       6.575   4.011   1.542  0.00  0.00    +0.000 C 
ATOM     44  O   UNL     1       5.504   3.661   2.418  0.00  0.00    +0.000 OA
ENDBRANCH  35  44
BRANCH  36  45
ATOM     45  O   UNL     1       5.002   2.628   4.844  0.00  0.00    +0.000 OA
ATOM     46  H   UNL     1       5.032   3.538   4.482  0.00  0.00    +0.000 HD
ENDBRANCH  36  45
ENDBRANCH   1  38
BRANCH  10  47
ATOM     47  O   UNL     1       2.323  -2.166   4.672  0.00  0.00    +0.000 OA
ATOM     48  H   UNL     1       3.019  -1.500   4.785  0.00  0.00    +0.000 HD
ENDBRANCH  10  47
BRANCH   8  49
ATOM     49  O   UNL     1       1.753  -3.271   0.028  0.00  0.00    +0.000 OA
ATOM     50  H   UNL     1       2.303  -3.758  -0.622  0.00  0.00    +0.000 HD
ENDBRANCH   8  49
BRANCH   2  51
ATOM     51  O   UNL     1       6.869  -2.542   5.086  0.00  0.00    +0.000 OA
ATOM     52  H   UNL     1       6.826  -2.653   6.052  0.00  0.00    +0.000 HD
ENDBRANCH   2  51
TORSDOF 13
