REMARK  Name = 
REMARK  4 active torsions:
REMARK  status: ('A' for Active; 'I' for Inactive)
REMARK    1  A    between atoms: C_1  and  C_2
REMARK    2  A    between atoms: C_2  and  C_11
REMARK    3  A    between atoms: C_6  and  C_9
REMARK    4  A    between atoms: C_6  and  O_10
REMARK                            x       y       z     vdW  Elec       q    Type
REMARK                         _______ _______ _______ _____ _____    ______ ____
ROOT
ATOM      1  C   UNL     1       0.980   0.045  -0.106  0.00  0.00    +0.000 C 
ATOM      2  C   UNL     1       2.486  -0.022  -0.075  0.00  0.00    +0.000 C 
ATOM      3  C   UNL     1       3.216  -1.066   0.390  0.00  0.00    +0.000 C 
ATOM      4  C   UNL     1       2.636  -2.345   0.963  0.00  0.00    +0.000 C 
ATOM      5  C   UNL     1       3.157  -3.568   0.202  0.00  0.00    +0.000 C 
ATOM      6  C   UNL     1       4.692  -3.620   0.156  0.00  0.00    +0.000 C 
ATOM      7  C   UNL     1       5.264  -2.301  -0.385  0.00  0.00    +0.000 C 
ATOM      8  C   UNL     1       4.736  -1.081   0.376  0.00  0.00    +0.000 C 
ATOM      9  C   UNL     1       5.154  -4.797  -0.708  0.00  0.00    +0.000 C 
ATOM     10  C   UNL     1       3.140   1.222  -0.629  0.00  0.00    +0.000 C 
ENDROOT
BRANCH   6  11
ATOM     11  O   UNL     1       5.207  -3.867   1.469  0.00  0.00    +0.000 OA
ATOM     12  H   UNL     1       4.947  -3.140   2.056  0.00  0.00    +0.000 HD
ENDBRANCH   6  11
TORSDOF 1
