REMARK  Name = 
REMARK  4 active torsions:
REMARK  status: ('A' for Active; 'I' for Inactive)
REMARK    1  A    between atoms: C_1  and  O_2
REMARK    2  A    between atoms: O_2  and  C_3
REMARK    3  A    between atoms: C_4  and  O_11
REMARK    4  A    between atoms: C_7  and  C_9
REMARK                            x       y       z     vdW  Elec       q    Type
REMARK                         _______ _______ _______ _____ _____    ______ ____
ROOT
ATOM      1  C   UNL     1       2.972  -1.120   0.054  0.00  0.00    +0.000 A 
ATOM      2  C   UNL     1       4.373  -1.183   0.035  0.00  0.00    +0.000 A 
ATOM      3  C   UNL     1       5.051  -2.398   0.019  0.00  0.00    +0.000 A 
ATOM      4  C   UNL     1       4.323  -3.587   0.024  0.00  0.00    +0.000 A 
ATOM      5  C   UNL     1       2.925  -3.536   0.044  0.00  0.00    +0.000 A 
ATOM      6  C   UNL     1       2.248  -2.310   0.060  0.00  0.00    +0.000 A 
ENDROOT
BRANCH   1   8
ATOM      7  C   UNL     1       1.022   0.233   0.080  0.00  0.00    +0.000 C 
ATOM      8  O   UNL     1       2.444   0.145   0.063  0.00  0.00    +0.000 OA
ENDBRANCH   1   8
BRANCH   5   9
ATOM      9  C   UNL     1       2.155  -4.798   0.050  0.00  0.00    +0.000 C 
ATOM     10  O   UNL     1       0.931  -4.808   0.070  0.00  0.00    +0.000 OA
ENDBRANCH   5   9
BRANCH   2  11
ATOM     11  O   UNL     1       5.114  -0.034   0.031  0.00  0.00    +0.000 OA
ATOM     12  H   UNL     1       4.460   0.692   0.047  0.00  0.00    +0.000 HD
ENDBRANCH   2  11
TORSDOF 3
