REMARK  Name = 
REMARK  17 active torsions:
REMARK  status: ('A' for Active; 'I' for Inactive)
REMARK    1  A    between atoms: C_6  and  O_8
REMARK    2  A    between atoms: O_8  and  C_9
REMARK    3  A    between atoms: C_9  and  C_11
REMARK    4  A    between atoms: C_13  and  O_19
REMARK    5  A    between atoms: C_14  and  O_18
REMARK    6  A    between atoms: C_15  and  O_17
REMARK    7  A    between atoms: C_25  and  O_44
REMARK    8  A    between atoms: C_26  and  O_43
REMARK    9  A    between atoms: C_34  and  O_39
REMARK   10  A    between atoms: C_35  and  O_36
REMARK   11  A    between atoms: C_35  and  O_37
REMARK   12  A    between atoms: C_50  and  O_68
REMARK   13  A    between atoms: C_51  and  O_67
REMARK   14  A    between atoms: C_52  and  O_66
REMARK   15  A    between atoms: C_55  and  O_65
REMARK   16  A    between atoms: C_56  and  O_64
REMARK   17  A    between atoms: C_57  and  O_63
REMARK                            x       y       z     vdW  Elec       q    Type
REMARK                         _______ _______ _______ _____ _____    ______ ____
ROOT
ATOM      1  C   UNL     1      11.670  -2.650  -2.128  0.00  0.00    +0.000 C 
ATOM      2  C   UNL     1      10.558  -2.289  -1.096  0.00  0.00    +0.000 C 
ATOM      3  C   UNL     1       9.117  -2.519  -1.558  0.00  0.00    +0.000 C 
ATOM      4  C   UNL     1       9.129  -4.003  -1.968  0.00  0.00    +0.000 C 
ATOM      5  C   UNL     1       9.020  -4.779  -0.686  0.00  0.00    +0.000 C 
ATOM      6  C   UNL     1      10.296  -4.435   0.154  0.00  0.00    +0.000 C 
ATOM      7  O   UNL     1      10.693  -3.028   0.150  0.00  0.00    +0.000 OA
ATOM      8  O   UNL     1       7.835  -4.259  -0.060  0.00  0.00    +0.000 OA
ATOM      9  C   UNL     1       6.988  -5.139   0.491  0.00  0.00    +0.000 C 
ATOM     10  O   UNL     1       7.165  -6.316   0.717  0.00  0.00    +0.000 OA
ATOM     11  C   UNL     1       5.769  -4.392   0.784  0.00  0.00    +0.000 A 
ATOM     12  C   UNL     1       5.398  -4.345   2.134  0.00  0.00    +0.000 A 
ATOM     13  C   UNL     1       4.170  -3.809   2.471  0.00  0.00    +0.000 A 
ATOM     14  C   UNL     1       3.297  -3.392   1.480  0.00  0.00    +0.000 A 
ATOM     15  C   UNL     1       3.692  -3.390   0.139  0.00  0.00    +0.000 A 
ATOM     16  C   UNL     1       4.977  -3.825  -0.235  0.00  0.00    +0.000 A 
ATOM     17  C   UNL     1       5.484  -3.561  -1.680  0.00  0.00    +0.000 C 
ATOM     18  C   UNL     1       6.233  -2.224  -1.707  0.00  0.00    +0.000 C 
ATOM     19  C   UNL     1       5.595  -1.078  -1.424  0.00  0.00    +0.000 C 
ATOM     20  C   UNL     1       4.106  -1.076  -1.514  0.00  0.00    +0.000 C 
ATOM     21  O   UNL     1       3.547   0.003  -1.258  0.00  0.00    +0.000 OA
ATOM     22  C   UNL     1       3.333  -2.373  -1.945  0.00  0.00    +0.000 C 
ATOM     23  C   UNL     1       4.248  -3.457  -2.592  0.00  0.00    +0.000 C 
ATOM     24  O   UNL     1       2.762  -2.937  -0.764  0.00  0.00    +0.000 OA
ATOM     25  C   UNL     1       7.192  -1.881  -2.792  0.00  0.00    +0.000 C 
ATOM     26  O   UNL     1       6.678  -1.729  -3.899  0.00  0.00    +0.000 OA
ATOM     27  O   UNL     1       8.526  -1.691  -2.562  0.00  0.00    +0.000 OA
ATOM     28  O   UNL     1       8.160  -4.214  -2.985  0.00  0.00    +0.000 OA
ATOM     29  C   UNL     1       8.457  -5.208  -3.838  0.00  0.00    +0.000 C 
ATOM     30  O   UNL     1       9.022  -6.243  -3.549  0.00  0.00    +0.000 OA
ATOM     31  C   UNL     1       7.768  -4.927  -5.105  0.00  0.00    +0.000 A 
ATOM     32  C   UNL     1       6.730  -5.888  -5.300  0.00  0.00    +0.000 A 
ATOM     33  C   UNL     1       5.913  -5.814  -6.405  0.00  0.00    +0.000 A 
ATOM     34  C   UNL     1       6.148  -4.823  -7.328  0.00  0.00    +0.000 A 
ATOM     35  C   UNL     1       7.177  -3.884  -7.139  0.00  0.00    +0.000 A 
ATOM     36  C   UNL     1       8.024  -3.842  -5.992  0.00  0.00    +0.000 A 
ATOM     37  C   UNL     1       9.000  -2.652  -5.835  0.00  0.00    +0.000 A 
ATOM     38  C   UNL     1       8.552  -1.313  -6.077  0.00  0.00    +0.000 A 
ATOM     39  C   UNL     1       9.401  -0.197  -6.036  0.00  0.00    +0.000 A 
ATOM     40  C   UNL     1      10.762  -0.346  -5.940  0.00  0.00    +0.000 A 
ATOM     41  C   UNL     1      11.286  -1.609  -5.821  0.00  0.00    +0.000 A 
ATOM     42  C   UNL     1      10.408  -2.704  -5.569  0.00  0.00    +0.000 A 
ATOM     43  C   UNL     1      11.011  -3.440  -4.429  0.00  0.00    +0.000 C 
ATOM     44  O   UNL     1      11.335  -4.608  -4.362  0.00  0.00    +0.000 OA
ATOM     45  O   UNL     1      11.142  -2.472  -3.462  0.00  0.00    +0.000 OA
ENDROOT
BRANCH  14  46
ATOM     46  O   UNL     1       2.060  -2.926   1.824  0.00  0.00    +0.000 OA
ATOM     47  H   UNL     1       2.028  -2.971   2.798  0.00  0.00    +0.000 HD
ENDBRANCH  14  46
BRANCH  23  48
ATOM     48  O   UNL     1       3.633  -4.760  -2.619  0.00  0.00    +0.000 OA
ATOM     49  H   UNL     1       2.748  -4.662  -2.214  0.00  0.00    +0.000 HD
ENDBRANCH  23  48
BRANCH  23  50
ATOM     50  O   UNL     1       4.472  -3.165  -3.970  0.00  0.00    +0.000 OA
ATOM     51  H   UNL     1       5.261  -2.600  -4.087  0.00  0.00    +0.000 HD
ENDBRANCH  23  50
BRANCH  22  52
ATOM     52  O   UNL     1       2.281  -2.080  -2.869  0.00  0.00    +0.000 OA
ATOM     53  H   UNL     1       2.562  -2.449  -3.729  0.00  0.00    +0.000 HD
ENDBRANCH  22  52
BRANCH  33  54
ATOM     54  O   UNL     1       4.877  -6.675  -6.620  0.00  0.00    +0.000 OA
ATOM     55  H   UNL     1       4.774  -7.250  -5.839  0.00  0.00    +0.000 HD
ENDBRANCH  33  54
BRANCH  13  56
ATOM     56  O   UNL     1       3.777  -3.681   3.772  0.00  0.00    +0.000 OA
ATOM     57  H   UNL     1       4.524  -3.921   4.351  0.00  0.00    +0.000 HD
ENDBRANCH  13  56
BRANCH  40  58
ATOM     58  O   UNL     1      11.579   0.734  -5.800  0.00  0.00    +0.000 OA
ATOM     59  H   UNL     1      10.968   1.498  -5.746  0.00  0.00    +0.000 HD
ENDBRANCH  40  58
BRANCH  39  60
ATOM     60  O   UNL     1       8.878   1.071  -6.038  0.00  0.00    +0.000 OA
ATOM     61  H   UNL     1       7.910   0.913  -6.081  0.00  0.00    +0.000 HD
ENDBRANCH  39  60
BRANCH  38  62
ATOM     62  O   UNL     1       7.242  -0.934  -6.299  0.00  0.00    +0.000 OA
ATOM     63  H   UNL     1       6.683  -1.727  -6.259  0.00  0.00    +0.000 HD
ENDBRANCH  38  62
BRANCH  35  64
ATOM     64  O   UNL     1       7.291  -2.939  -8.135  0.00  0.00    +0.000 OA
ATOM     65  H   UNL     1       6.598  -3.164  -8.793  0.00  0.00    +0.000 HD
ENDBRANCH  35  64
BRANCH  34  66
ATOM     66  O   UNL     1       5.345  -4.716  -8.434  0.00  0.00    +0.000 OA
ATOM     67  H   UNL     1       4.694  -5.444  -8.337  0.00  0.00    +0.000 HD
ENDBRANCH  34  66
BRANCH   6  68
ATOM     68  O   UNL     1      10.036  -4.812   1.517  0.00  0.00    +0.000 OA
BRANCH  68  69
ATOM     69  C   UNL     1      10.025  -6.150   1.730  0.00  0.00    +0.000 C 
ATOM     70  O   UNL     1      10.414  -6.992   0.937  0.00  0.00    +0.000 OA
BRANCH  69  71
ATOM     71  C   UNL     1       9.400  -6.477   3.039  0.00  0.00    +0.000 A 
ATOM     72  C   UNL     1       9.394  -7.824   3.443  0.00  0.00    +0.000 A 
ATOM     73  C   UNL     1       8.759  -8.181   4.628  0.00  0.00    +0.000 A 
ATOM     74  C   UNL     1       8.115  -7.216   5.393  0.00  0.00    +0.000 A 
ATOM     75  C   UNL     1       8.109  -5.888   4.987  0.00  0.00    +0.000 A 
ATOM     76  C   UNL     1       8.759  -5.502   3.823  0.00  0.00    +0.000 A 
BRANCH  75  77
ATOM     77  O   UNL     1       7.430  -4.957   5.720  0.00  0.00    +0.000 OA
ATOM     78  H   UNL     1       7.117  -5.451   6.508  0.00  0.00    +0.000 HD
ENDBRANCH  75  77
BRANCH  74  79
ATOM     79  O   UNL     1       7.459  -7.560   6.543  0.00  0.00    +0.000 OA
ATOM     80  H   UNL     1       7.579  -8.531   6.609  0.00  0.00    +0.000 HD
ENDBRANCH  74  79
BRANCH  73  81
ATOM     81  O   UNL     1       8.722  -9.473   5.072  0.00  0.00    +0.000 OA
ATOM     82  H   UNL     1       9.182 -10.035   4.423  0.00  0.00    +0.000 HD
ENDBRANCH  73  81
ENDBRANCH  69  71
ENDBRANCH  68  69
ENDBRANCH   6  68
TORSDOF 17
