REMARK  Name = 
REMARK  5 active torsions:
REMARK  status: ('A' for Active; 'I' for Inactive)
REMARK    1  A    between atoms: C_2  and  C_10
REMARK    2  A    between atoms: C_4  and  O_9
REMARK    3  A    between atoms: C_5  and  O_8
REMARK    4  A    between atoms: C_6  and  O_7
REMARK    5  A    between atoms: C_10  and  O_12
REMARK                            x       y       z     vdW  Elec       q    Type
REMARK                         _______ _______ _______ _____ _____    ______ ____
ROOT
ATOM      1  C   UNL     1       1.261  -1.420   0.015  0.00  0.00    +0.000 A 
ATOM      2  C   UNL     1       0.045  -2.118  -0.005  0.00  0.00    +0.000 A 
ATOM      3  C   UNL     1      -1.177  -1.420  -0.004  0.00  0.00    +0.000 A 
ATOM      4  C   UNL     1      -1.169  -0.030  -0.010  0.00  0.00    +0.000 A 
ATOM      5  C   UNL     1       0.037   0.660  -0.015  0.00  0.00    +0.000 A 
ATOM      6  C   UNL     1       1.241  -0.032  -0.001  0.00  0.00    +0.000 A 
ENDROOT
BRANCH   6   7
ATOM      7  O   UNL     1       2.423   0.648   0.003  0.00  0.00    +0.000 OA
ATOM      8  H   UNL     1       2.168   1.594   0.004  0.00  0.00    +0.000 HD
ENDBRANCH   6   7
BRANCH   5   9
ATOM      9  O   UNL     1       0.058   2.028  -0.020  0.00  0.00    +0.000 OA
ATOM     10  H   UNL     1      -0.887   2.286  -0.005  0.00  0.00    +0.000 HD
ENDBRANCH   5   9
BRANCH   4  11
ATOM     11  O   UNL     1      -2.322   0.704  -0.010  0.00  0.00    +0.000 OA
ATOM     12  H   UNL     1      -3.080   0.092   0.022  0.00  0.00    +0.000 HD
ENDBRANCH   4  11
BRANCH   2  13
ATOM     13  C   UNL     1      -0.007  -3.601   0.014  0.00  0.00    +0.000 C 
ATOM     14  O   UNL     1      -0.940  -4.214   0.505  0.00  0.00    +0.000 OA
BRANCH  13  15
ATOM     15  O   UNL     1       1.029  -4.203  -0.603  0.00  0.00    +0.000 OA
ATOM     16  H   UNL     1       1.631  -3.614  -1.095  0.00  0.00    +0.000 HD
ENDBRANCH  13  15
ENDBRANCH   2  13
TORSDOF 5
