REMARK  Name = 
REMARK  12 active torsions:
REMARK  status: ('A' for Active; 'I' for Inactive)
REMARK    1  A    between atoms: C_3  and  O_26
REMARK    2  A    between atoms: C_4  and  O_25
REMARK    3  A    between atoms: C_6  and  C_7
REMARK    4  A    between atoms: C_7  and  C_8
REMARK    5  A    between atoms: C_8  and  C_9
REMARK    6  A    between atoms: C_8  and  O_12
REMARK    7  A    between atoms: C_9  and  O_11
REMARK    8  A    between atoms: O_12  and  C_13
REMARK    9  A    between atoms: C_13  and  C_15
REMARK   10  A    between atoms: C_16  and  C_17
REMARK   11  A    between atoms: C_19  and  O_24
REMARK   12  A    between atoms: C_20  and  O_23
REMARK                            x       y       z     vdW  Elec       q    Type
REMARK                         _______ _______ _______ _____ _____    ______ ____
ROOT
ATOM      1  C   UNL     1      -3.083  -3.048   0.167  0.00  0.00    +0.000 C 
ENDROOT
BRANCH   1   2
ATOM      2  C   UNL     1      -2.572  -3.383   1.569  0.00  0.00    +0.000 C 
ATOM      3  O   UNL     1      -1.735  -2.738   2.184  0.00  0.00    +0.000 OA
BRANCH   2   4
ATOM      4  O   UNL     1      -3.077  -4.547   2.051  0.00  0.00    +0.000 OA
ATOM      5  H   UNL     1      -3.732  -4.926   1.430  0.00  0.00    +0.000 HD
ENDBRANCH   2   4
ENDBRANCH   1   2
BRANCH   1   6
ATOM      6  O   UNL     1      -4.328  -3.731  -0.095  0.00  0.00    +0.000 OA
BRANCH   6   7
ATOM      7  C   UNL     1      -4.606  -3.902  -1.416  0.00  0.00    +0.000 C 
ATOM      8  O   UNL     1      -3.878  -3.600  -2.344  0.00  0.00    +0.000 OA
BRANCH   7   9
ATOM      9  C   UNL     1      -5.941  -4.518  -1.551  0.00  0.00    +0.000 C 
ATOM     10  C   UNL     1      -6.426  -4.777  -2.777  0.00  0.00    +0.000 C 
BRANCH  10  11
ATOM     11  C   UNL     1      -7.742  -5.379  -3.048  0.00  0.00    +0.000 A 
ATOM     12  C   UNL     1      -7.896  -6.174  -4.198  0.00  0.00    +0.000 A 
ATOM     13  C   UNL     1      -9.140  -6.725  -4.496  0.00  0.00    +0.000 A 
ATOM     14  C   UNL     1     -10.233  -6.483  -3.668  0.00  0.00    +0.000 A 
ATOM     15  C   UNL     1     -10.106  -5.689  -2.544  0.00  0.00    +0.000 A 
ATOM     16  C   UNL     1      -8.860  -5.132  -2.235  0.00  0.00    +0.000 A 
BRANCH  13  17
ATOM     17  O   UNL     1      -9.341  -7.511  -5.596  0.00  0.00    +0.000 OA
ATOM     18  H   UNL     1      -8.503  -7.575  -6.086  0.00  0.00    +0.000 HD
ENDBRANCH  13  17
BRANCH  14  19
ATOM     19  O   UNL     1     -11.449  -7.025  -3.970  0.00  0.00    +0.000 OA
ATOM     20  H   UNL     1     -11.298  -7.529  -4.794  0.00  0.00    +0.000 HD
ENDBRANCH  14  19
ENDBRANCH  10  11
ENDBRANCH   7   9
ENDBRANCH   6   7
ENDBRANCH   1   6
BRANCH   1  21
ATOM     21  C   UNL     1      -3.187  -1.533  -0.064  0.00  0.00    +0.000 C 
BRANCH  21  27
ATOM     22  C   UNL     1      -3.789  -0.181   1.994  0.00  0.00    +0.000 A 
ATOM     23  C   UNL     1      -4.664   0.633   2.721  0.00  0.00    +0.000 A 
ATOM     24  C   UNL     1      -5.941   0.863   2.227  0.00  0.00    +0.000 A 
ATOM     25  C   UNL     1      -6.350   0.265   1.038  0.00  0.00    +0.000 A 
ATOM     26  C   UNL     1      -5.495  -0.564   0.322  0.00  0.00    +0.000 A 
ATOM     27  C   UNL     1      -4.186  -0.773   0.782  0.00  0.00    +0.000 A 
BRANCH  25  28
ATOM     28  O   UNL     1      -7.595   0.524   0.541  0.00  0.00    +0.000 OA
ATOM     29  H   UNL     1      -7.963   1.198   1.148  0.00  0.00    +0.000 HD
ENDBRANCH  25  28
BRANCH  24  30
ATOM     30  O   UNL     1      -6.825   1.689   2.864  0.00  0.00    +0.000 OA
ATOM     31  H   UNL     1      -6.398   2.020   3.673  0.00  0.00    +0.000 HD
ENDBRANCH  24  30
ENDBRANCH  21  27
ENDBRANCH   1  21
TORSDOF 12
