REMARK  Name = 
REMARK  6 active torsions:
REMARK  status: ('A' for Active; 'I' for Inactive)
REMARK    1  A    between atoms: C_5  and  O_8
REMARK    2  A    between atoms: C_6  and  O_7
REMARK    3  A    between atoms: C_14  and  O_30
REMARK    4  A    between atoms: C_15  and  C_19
REMARK    5  A    between atoms: C_16  and  O_18
REMARK    6  A    between atoms: C_23  and  C_25
REMARK                            x       y       z     vdW  Elec       q    Type
REMARK                         _______ _______ _______ _____ _____    ______ ____
ROOT
ATOM      1  C   UNL     1      -2.394   1.410  -0.002  0.00  0.00    +0.000 A 
ATOM      2  C   UNL     1      -1.156   0.733  -0.001  0.00  0.00    +0.000 A 
ATOM      3  C   UNL     1      -1.157  -0.735  -0.001  0.00  0.00    +0.000 A 
ATOM      4  C   UNL     1      -2.393  -1.413  -0.001  0.00  0.00    +0.000 A 
ATOM      5  C   UNL     1      -3.549  -0.699  -0.001  0.00  0.00    +0.000 A 
ATOM      6  C   UNL     1      -3.549   0.696   0.004  0.00  0.00    +0.000 A 
ATOM      7  O   UNL     1      -0.007  -1.404   0.000  0.00  0.00    +0.000 OA
ATOM      8  C   UNL     1       1.136  -0.735   0.000  0.00  0.00    +0.000 A 
ATOM      9  C   UNL     1       1.140   0.732   0.000  0.00  0.00    +0.000 A 
ATOM     10  C   UNL     1      -0.008   1.401  -0.001  0.00  0.00    +0.000 A 
ATOM     11  O   UNL     1      -0.008   2.672  -0.002  0.00  0.00    +0.000 OA
ATOM     12  C   UNL     1       2.379   1.409   0.000  0.00  0.00    +0.000 A 
ATOM     13  C   UNL     1       3.545   0.714   0.000  0.00  0.00    +0.000 A 
ATOM     14  C   UNL     1       3.588  -0.676   0.000  0.00  0.00    +0.000 A 
ATOM     15  C   UNL     1       2.427  -1.432   0.001  0.00  0.00    +0.000 A 
ENDROOT
BRANCH  13  16
ATOM     16  C   UNL     1       4.855   1.485   0.000  0.00  0.00    +0.000 C 
ATOM     17  C   UNL     1       4.855   1.485   0.000  0.00  0.00    +0.000 C 
ATOM     18  C   UNL     1       4.855   1.485   0.000  0.00  0.00    +0.000 C 
ATOM     19  C   UNL     1       4.855   1.485   0.000  0.00  0.00    +0.000 C 
ATOM     20  C   UNL     1       4.855   1.485   0.000  0.00  0.00    +0.000 C 
ATOM     21  O   UNL     1       4.855   1.485   0.000  0.00  0.00    +0.000 OA
ATOM     22  O   UNL     1       4.855   1.485   0.000  0.00  0.00    +0.000 OA
ATOM     23  O   UNL     1       4.855   1.485   0.000  0.00  0.00    +0.000 OA
ATOM     24  O   UNL     1       4.855   1.485   0.000  0.00  0.00    +0.000 OA
BRANCH  20  25
ATOM     25  C   UNL     1         nan     nan     nan  0.00  0.00    +0.000 C 
ATOM     26  O   UNL     1         nan     nan     nan  0.00  0.00    +0.000 OA
ENDBRANCH  20  25
ENDBRANCH  13  16
BRANCH   5  27
ATOM     27  O   UNL     1      -4.789  -1.391  -0.006  0.00  0.00    +0.000 OA
ATOM     28  H   UNL     1      -4.803  -2.328  -0.010  0.00  0.00    +0.000 HD
ENDBRANCH   5  27
BRANCH  14  29
ATOM     29  O   UNL     1       4.847  -1.333  -0.001  0.00  0.00    +0.000 OA
ATOM     30  H   UNL     1       5.638  -0.831  -0.002  0.00  0.00    +0.000 HD
ENDBRANCH  14  29
BRANCH   6  31
ATOM     31  O   UNL     1      -4.789   1.387   0.016  0.00  0.00    +0.000 OA
ATOM     32  H   UNL     1      -5.594   0.907   0.020  0.00  0.00    +0.000 HD
ENDBRANCH   6  31
BRANCH  12  33
ATOM     33  O   UNL     1       2.406   2.829   0.000  0.00  0.00    +0.000 OA
ATOM     34  H   UNL     1       1.603   3.312   0.000  0.00  0.00    +0.000 HD
ENDBRANCH  12  33
TORSDOF 6
