REMARK  Name = 
REMARK  6 active torsions:
REMARK  status: ('A' for Active; 'I' for Inactive)
REMARK    1  A    between atoms: C_3  and  C_9
REMARK    2  A    between atoms: C_4  and  O_8
REMARK    3  A    between atoms: C_6  and  O_7
REMARK    4  A    between atoms: C_10  and  O_22
REMARK    5  A    between atoms: C_14  and  O_21
REMARK    6  A    between atoms: C_16  and  O_20
REMARK                            x       y       z     vdW  Elec       q    Type
REMARK                         _______ _______ _______ _____ _____    ______ ____
ROOT
ATOM      1  C   UNL     1      -1.940   1.918  -0.397  0.00  0.00    +0.000 A 
ATOM      2  C   UNL     1      -2.458   3.044   0.136  0.00  0.00    +0.000 A 
ATOM      3  C   UNL     1      -1.454   4.183   0.180  0.00  0.00    +0.000 A 
ATOM      4  O   UNL     1      -1.680   5.268   0.696  0.00  0.00    +0.000 OA
ATOM      5  C   UNL     1      -0.069   3.842  -0.237  0.00  0.00    +0.000 A 
ATOM      6  C   UNL     1       1.053   4.351   0.406  0.00  0.00    +0.000 A 
ATOM      7  C   UNL     1       2.306   3.779   0.166  0.00  0.00    +0.000 A 
ATOM      8  C   UNL     1       2.422   2.731  -0.751  0.00  0.00    +0.000 A 
ATOM      9  C   UNL     1       1.318   2.253  -1.442  0.00  0.00    +0.000 A 
ATOM     10  C   UNL     1       0.071   2.784  -1.129  0.00  0.00    +0.000 A 
ATOM     11  O   UNL     1      -1.057   2.077  -1.494  0.00  0.00    +0.000 OA
ENDROOT
BRANCH   1  14
ATOM     12  C   UNL     1       0.431   0.716   2.140  0.00  0.00    +0.000 A 
ATOM     13  C   UNL     1      -0.797   1.250   1.740  0.00  0.00    +0.000 A 
ATOM     14  C   UNL     1      -1.398   0.830   0.529  0.00  0.00    +0.000 A 
ATOM     15  C   UNL     1      -0.891  -0.337  -0.071  0.00  0.00    +0.000 A 
ATOM     16  C   UNL     1       0.337  -0.868   0.322  0.00  0.00    +0.000 A 
ATOM     17  C   UNL     1       1.023  -0.279   1.377  0.00  0.00    +0.000 A 
BRANCH  15  18
ATOM     18  O   UNL     1      -1.494  -0.919  -1.152  0.00  0.00    +0.000 OA
ATOM     19  H   UNL     1      -2.427  -0.643  -1.152  0.00  0.00    +0.000 HD
ENDBRANCH  15  18
BRANCH  17  20
ATOM     20  O   UNL     1       2.314  -0.617   1.657  0.00  0.00    +0.000 OA
ATOM     21  H   UNL     1       2.700  -1.004   0.852  0.00  0.00    +0.000 HD
ENDBRANCH  17  20
ENDBRANCH   1  14
BRANCH   8  22
ATOM     22  O   UNL     1       3.604   2.071  -0.926  0.00  0.00    +0.000 OA
ATOM     23  H   UNL     1       4.186   2.284  -0.176  0.00  0.00    +0.000 HD
ENDBRANCH   8  22
BRANCH   6  24
ATOM     24  O   UNL     1       0.980   5.318   1.371  0.00  0.00    +0.000 OA
ATOM     25  H   UNL     1       0.047   5.628   1.425  0.00  0.00    +0.000 HD
ENDBRANCH   6  24
BRANCH   2  26
ATOM     26  O   UNL     1      -3.468   3.057   1.078  0.00  0.00    +0.000 OA
ATOM     27  H   UNL     1      -4.194   2.522   0.711  0.00  0.00    +0.000 HD
ENDBRANCH   2  26
TORSDOF 6
