REMARK  Name = 
REMARK  10 active torsions:
REMARK  status: ('A' for Active; 'I' for Inactive)
REMARK    1  A    between atoms: C_1  and  C_2
REMARK    2  A    between atoms: C_3  and  O_31
REMARK    3  A    between atoms: C_4  and  O_30
REMARK    4  A    between atoms: C_5  and  O_29
REMARK    5  A    between atoms: C_6  and  O_8
REMARK    6  A    between atoms: O_8  and  C_9
REMARK    7  A    between atoms: C_10  and  C_22
REMARK    8  A    between atoms: C_14  and  O_21
REMARK    9  A    between atoms: C_16  and  O_20
REMARK   10  A    between atoms: C_25  and  O_28
REMARK                            x       y       z     vdW  Elec       q    Type
REMARK                         _______ _______ _______ _____ _____    ______ ____
ROOT
ATOM      1  C   UNL     1       2.850   2.814  -3.297  0.00  0.00    +0.000 A 
ATOM      2  C   UNL     1       3.176   3.560  -2.214  0.00  0.00    +0.000 A 
ATOM      3  O   UNL     1       2.880   4.912  -2.080  0.00  0.00    +0.000 OA
ATOM      4  C   UNL     1       2.277   5.586  -3.101  0.00  0.00    +0.000 A 
ATOM      5  C   UNL     1       2.080   6.957  -2.913  0.00  0.00    +0.000 A 
ATOM      6  C   UNL     1       1.490   7.706  -3.925  0.00  0.00    +0.000 A 
ATOM      7  C   UNL     1       1.088   7.105  -5.111  0.00  0.00    +0.000 A 
ATOM      8  C   UNL     1       1.284   5.738  -5.288  0.00  0.00    +0.000 A 
ATOM      9  C   UNL     1       1.885   4.971  -4.278  0.00  0.00    +0.000 A 
ATOM     10  C   UNL     1       2.159   3.532  -4.427  0.00  0.00    +0.000 A 
ATOM     11  O   UNL     1       1.875   2.973  -5.479  0.00  0.00    +0.000 OA
ENDROOT
BRANCH   2  12
ATOM     12  C   UNL     1       3.882   3.068  -0.997  0.00  0.00    +0.000 A 
ATOM     13  C   UNL     1       4.787   3.928  -0.334  0.00  0.00    +0.000 A 
ATOM     14  C   UNL     1       5.343   3.594   0.906  0.00  0.00    +0.000 A 
ATOM     15  C   UNL     1       5.001   2.387   1.496  0.00  0.00    +0.000 A 
ATOM     16  C   UNL     1       4.155   1.497   0.845  0.00  0.00    +0.000 A 
ATOM     17  C   UNL     1       3.593   1.837  -0.393  0.00  0.00    +0.000 A 
BRANCH  15  18
ATOM     18  O   UNL     1       5.459   2.047   2.733  0.00  0.00    +0.000 OA
ATOM     19  H   UNL     1       5.891   2.822   3.128  0.00  0.00    +0.000 HD
ENDBRANCH  15  18
ENDBRANCH   2  12
BRANCH   8  20
ATOM     20  O   UNL     1       0.885   5.165  -6.461  0.00  0.00    +0.000 OA
ATOM     21  H   UNL     1       0.473   5.832  -7.032  0.00  0.00    +0.000 HD
ENDBRANCH   8  20
BRANCH   6  22
ATOM     22  O   UNL     1       1.294   9.048  -3.802  0.00  0.00    +0.000 OA
ATOM     23  H   UNL     1       1.619   9.341  -2.935  0.00  0.00    +0.000 HD
ENDBRANCH   6  22
BRANCH   1  24
ATOM     24  O   UNL     1       3.195   1.461  -3.380  0.00  0.00    +0.000 OA
BRANCH  24  30
ATOM     25  C   UNL     1       0.446   0.563  -6.604  0.00  0.00    +0.000 C 
ATOM     26  C   UNL     1       0.457  -0.137  -5.241  0.00  0.00    +0.000 C 
ATOM     27  C   UNL     1       0.968  -1.586  -5.309  0.00  0.00    +0.000 C 
ATOM     28  C   UNL     1       2.499  -1.601  -5.482  0.00  0.00    +0.000 C 
ATOM     29  C   UNL     1       3.169  -0.757  -4.384  0.00  0.00    +0.000 C 
ATOM     30  C   UNL     1       2.586   0.674  -4.423  0.00  0.00    +0.000 C 
ATOM     31  O   UNL     1       1.166   0.597  -4.228  0.00  0.00    +0.000 OA
BRANCH  27  32
ATOM     32  O   UNL     1       0.287  -2.313  -6.335  0.00  0.00    +0.000 OA
ATOM     33  H   UNL     1       0.885  -2.401  -7.097  0.00  0.00    +0.000 HD
ENDBRANCH  27  32
BRANCH  29  34
ATOM     34  O   UNL     1       2.921  -1.404  -3.117  0.00  0.00    +0.000 OA
ATOM     35  H   UNL     1       2.245  -0.866  -2.661  0.00  0.00    +0.000 HD
ENDBRANCH  29  34
BRANCH  28  36
ATOM     36  O   UNL     1       2.981  -2.950  -5.431  0.00  0.00    +0.000 OA
ATOM     37  H   UNL     1       2.981  -3.190  -4.483  0.00  0.00    +0.000 HD
ENDBRANCH  28  36
ENDBRANCH  24  30
ENDBRANCH   1  24
TORSDOF 9
