REMARK  Name = 
REMARK  8 active torsions:
REMARK  status: ('A' for Active; 'I' for Inactive)
REMARK    1  A    between atoms: C_3  and  O_29
REMARK    2  A    between atoms: C_6  and  C_7
REMARK    3  A    between atoms: C_8  and  C_9
REMARK    4  A    between atoms: C_10  and  O_17
REMARK    5  A    between atoms: C_11  and  O_16
REMARK    6  A    between atoms: C_13  and  O_15
REMARK    7  A    between atoms: O_17  and  C_18
REMARK    8  A    between atoms: C_22  and  C_24
REMARK                            x       y       z     vdW  Elec       q    Type
REMARK                         _______ _______ _______ _____ _____    ______ ____
ROOT
ATOM      1  C   UNL     1      -5.560   1.330  -0.087  0.00  0.00    +0.000 A 
ATOM      2  C   UNL     1      -6.279   0.503   0.747  0.00  0.00    +0.000 A 
ATOM      3  C   UNL     1      -7.653   0.540   0.740  0.00  0.00    +0.000 A 
ATOM      4  C   UNL     1      -8.322   1.398  -0.110  0.00  0.00    +0.000 A 
ATOM      5  C   UNL     1      -7.616   2.207  -0.968  0.00  0.00    +0.000 A 
ATOM      6  C   UNL     1      -6.205   2.211  -0.961  0.00  0.00    +0.000 A 
ENDROOT
BRANCH   5   7
ATOM      7  O   UNL     1      -8.324   3.007  -1.797  0.00  0.00    +0.000 OA
ATOM      8  H   UNL     1      -9.261   2.985  -1.782  0.00  0.00    +0.000 HD
ENDBRANCH   5   7
BRANCH   3   9
ATOM      9  O   UNL     1      -8.387  -0.308   1.611  0.00  0.00    +0.000 OA
ATOM     10  H   UNL     1      -7.935  -0.891   2.189  0.00  0.00    +0.000 HD
ENDBRANCH   3   9
BRANCH   1  12
ATOM     11  C   UNL     1      -3.353   2.098   0.790  0.00  0.00    +0.000 C 
ATOM     12  C   UNL     1      -4.041   1.285  -0.057  0.00  0.00    +0.000 C 
BRANCH  11  18
ATOM     13  C   UNL     1      -1.191   1.191   1.675  0.00  0.00    +0.000 A 
ATOM     14  C   UNL     1       0.190   1.151   1.716  0.00  0.00    +0.000 A 
ATOM     15  C   UNL     1       0.927   1.989   0.914  0.00  0.00    +0.000 A 
ATOM     16  C   UNL     1       0.293   2.862   0.006  0.00  0.00    +0.000 A 
ATOM     17  C   UNL     1      -1.105   2.876  -0.011  0.00  0.00    +0.000 A 
ATOM     18  C   UNL     1      -1.834   2.052   0.820  0.00  0.00    +0.000 A 
BRANCH  15  19
ATOM     19  O   UNL     1       2.274   1.925   1.016  0.00  0.00    +0.000 OA
ATOM     20  H   UNL     1       2.670   1.336   1.628  0.00  0.00    +0.000 HD
ENDBRANCH  15  19
ENDBRANCH  11  18
ENDBRANCH   1  12
BRANCH   2  21
ATOM     21  O   UNL     1      -5.600  -0.391   1.617  0.00  0.00    +0.000 OA
BRANCH  21  22
ATOM     22  C   UNL     1      -6.204  -1.622   1.983  0.00  0.00    +0.000 C 
ATOM     23  C   UNL     1      -6.204  -1.622   1.983  0.00  0.00    +0.000 C 
ATOM     24  C   UNL     1      -6.204  -1.622   1.983  0.00  0.00    +0.000 C 
ATOM     25  C   UNL     1      -6.204  -1.622   1.983  0.00  0.00    +0.000 C 
ATOM     26  C   UNL     1      -6.204  -1.622   1.983  0.00  0.00    +0.000 C 
ATOM     27  O   UNL     1      -6.204  -1.622   1.983  0.00  0.00    +0.000 OA
ATOM     28  O   UNL     1      -6.204  -1.622   1.983  0.00  0.00    +0.000 OA
ATOM     29  O   UNL     1      -6.204  -1.622   1.983  0.00  0.00    +0.000 OA
ATOM     30  O   UNL     1      -6.204  -1.622   1.983  0.00  0.00    +0.000 OA
BRANCH  26  31
ATOM     31  C   UNL     1         nan     nan     nan  0.00  0.00    +0.000 C 
ATOM     32  O   UNL     1         nan     nan     nan  0.00  0.00    +0.000 OA
ENDBRANCH  26  31
ENDBRANCH  21  22
ENDBRANCH   2  21
TORSDOF 8
