REMARK  Name = 
REMARK  13 active torsions:
REMARK  status: ('A' for Active; 'I' for Inactive)
REMARK    1  A    between atoms: C_4  and  O_10
REMARK    2  A    between atoms: C_5  and  O_9
REMARK    3  A    between atoms: C_6  and  O_8
REMARK    4  A    between atoms: C_16  and  O_56
REMARK    5  A    between atoms: C_17  and  O_55
REMARK    6  A    between atoms: C_18  and  O_54
REMARK    7  A    between atoms: C_21  and  O_53
REMARK    8  A    between atoms: C_22  and  O_52
REMARK    9  A    between atoms: C_30  and  O_51
REMARK   10  A    between atoms: C_31  and  O_50
REMARK   11  A    between atoms: C_34  and  O_44
REMARK   12  A    between atoms: C_35  and  O_43
REMARK   13  A    between atoms: C_36  and  O_42
REMARK                            x       y       z     vdW  Elec       q    Type
REMARK                         _______ _______ _______ _____ _____    ______ ____
ROOT
ATOM      1  C   UNL     1       1.503  -3.450  -2.194  0.00  0.00    +0.000 C 
ATOM      2  C   UNL     1       1.982  -1.931  -1.269  0.00  0.00    +0.000 C 
ATOM      3  C   UNL     1       3.423  -1.989  -0.821  0.00  0.00    +0.000 C 
ATOM      4  C   UNL     1       3.944  -2.158  -2.316  0.00  0.00    +0.000 C 
ATOM      5  C   UNL     1       3.941  -0.808  -3.072  0.00  0.00    +0.000 C 
ATOM      6  C   UNL     1       2.634  -0.017  -2.778  0.00  0.00    +0.000 C 
ATOM      7  O   UNL     1       1.772  -0.576  -1.774  0.00  0.00    +0.000 OA
ATOM      8  O   UNL     1       3.325  -2.912   0.320  0.00  0.00    +0.000 OA
ATOM      9  C   UNL     1       3.029  -2.340   1.588  0.00  0.00    +0.000 C 
ATOM     10  O   UNL     1       3.267  -1.171   1.868  0.00  0.00    +0.000 OA
ATOM     11  C   UNL     1       2.331  -3.221   2.664  0.00  0.00    +0.000 A 
ATOM     12  C   UNL     1       1.604  -2.680   3.746  0.00  0.00    +0.000 A 
ATOM     13  C   UNL     1       0.950  -3.534   4.674  0.00  0.00    +0.000 A 
ATOM     14  C   UNL     1       1.003  -4.916   4.568  0.00  0.00    +0.000 A 
ATOM     15  C   UNL     1       1.750  -5.462   3.562  0.00  0.00    +0.000 A 
ATOM     16  C   UNL     1       2.426  -4.615   2.655  0.00  0.00    +0.000 A 
ATOM     17  C   UNL     1       3.199  -5.255   1.658  0.00  0.00    +0.000 A 
ATOM     18  C   UNL     1       4.599  -5.054   1.642  0.00  0.00    +0.000 A 
ATOM     19  C   UNL     1       5.326  -5.511   0.590  0.00  0.00    +0.000 A 
ATOM     20  C   UNL     1       4.671  -6.301  -0.307  0.00  0.00    +0.000 A 
ATOM     21  C   UNL     1       3.289  -6.639  -0.183  0.00  0.00    +0.000 A 
ATOM     22  C   UNL     1       2.519  -6.011   0.710  0.00  0.00    +0.000 A 
ATOM     23  C   UNL     1       1.018  -6.101   0.551  0.00  0.00    +0.000 A 
ATOM     24  O   UNL     1       0.268  -5.251   1.021  0.00  0.00    +0.000 OA
ATOM     25  O   UNL     1       0.473  -7.127  -0.217  0.00  0.00    +0.000 OA
ATOM     26  C   UNL     1       1.299  -7.825  -1.097  0.00  0.00    +0.000 A 
ATOM     27  C   UNL     1       0.718  -8.566  -2.125  0.00  0.00    +0.000 A 
ATOM     28  C   UNL     1       1.546  -8.944  -3.135  0.00  0.00    +0.000 A 
ATOM     29  C   UNL     1       2.872  -8.562  -3.019  0.00  0.00    +0.000 A 
ATOM     30  C   UNL     1       3.613  -8.279  -4.169  0.00  0.00    +0.000 A 
ATOM     31  C   UNL     1       4.413  -9.429  -4.512  0.00  0.00    +0.000 A 
ATOM     32  C   UNL     1       5.225  -9.385  -5.573  0.00  0.00    +0.000 A 
ATOM     33  C   UNL     1       5.050  -8.266  -6.359  0.00  0.00    +0.000 A 
ATOM     34  C   UNL     1       4.219  -7.076  -5.975  0.00  0.00    +0.000 A 
ATOM     35  C   UNL     1       3.556  -6.939  -4.719  0.00  0.00    +0.000 A 
ATOM     36  C   UNL     1       2.499  -5.579  -4.126  0.00  0.00    +0.000 C 
ATOM     37  O   UNL     1       1.542  -5.323  -4.863  0.00  0.00    +0.000 OA
ATOM     38  O   UNL     1       2.568  -4.711  -2.849  0.00  0.00    +0.000 OA
ATOM     39  C   UNL     1       3.536  -8.187  -1.889  0.00  0.00    +0.000 A 
ATOM     40  C   UNL     1       2.683  -7.591  -1.013  0.00  0.00    +0.000 A 
ATOM     41  C   UNL     1       5.025  -7.870  -1.929  0.00  0.00    +0.000 A 
ATOM     42  O   UNL     1       5.846  -8.596  -2.477  0.00  0.00    +0.000 OA
ATOM     43  O   UNL     1       5.434  -6.703  -1.379  0.00  0.00    +0.000 OA
ENDROOT
BRANCH   6  44
ATOM     44  O   UNL     1       2.985   1.358  -2.545  0.00  0.00    +0.000 OA
ATOM     45  H   UNL     1       3.861   1.490  -2.974  0.00  0.00    +0.000 HD
ENDBRANCH   6  44
BRANCH   5  46
ATOM     46  O   UNL     1       5.127  -0.033  -2.856  0.00  0.00    +0.000 OA
ATOM     47  H   UNL     1       5.339  -0.028  -1.908  0.00  0.00    +0.000 HD
ENDBRANCH   5  46
BRANCH   4  48
ATOM     48  O   UNL     1       5.008  -3.031  -2.587  0.00  0.00    +0.000 OA
ATOM     49  H   UNL     1       5.770  -2.801  -2.056  0.00  0.00    +0.000 HD
ENDBRANCH   4  48
BRANCH  33  50
ATOM     50  O   UNL     1       5.656  -8.377  -7.593  0.00  0.00    +0.000 OA
ATOM     51  H   UNL     1       6.055  -9.286  -7.584  0.00  0.00    +0.000 HD
ENDBRANCH  33  50
BRANCH  32  52
ATOM     52  O   UNL     1       6.072 -10.401  -5.819  0.00  0.00    +0.000 OA
ATOM     53  H   UNL     1       6.088 -10.955  -4.990  0.00  0.00    +0.000 HD
ENDBRANCH  32  52
BRANCH  31  54
ATOM     54  O   UNL     1       4.499 -10.560  -3.716  0.00  0.00    +0.000 OA
ATOM     55  H   UNL     1       4.834 -10.256  -2.845  0.00  0.00    +0.000 HD
ENDBRANCH  31  54
BRANCH  28  56
ATOM     56  O   UNL     1       1.105  -9.524  -4.289  0.00  0.00    +0.000 OA
ATOM     57  H   UNL     1       0.144  -9.669  -4.211  0.00  0.00    +0.000 HD
ENDBRANCH  28  56
BRANCH  27  58
ATOM     58  O   UNL     1      -0.614  -8.784  -2.298  0.00  0.00    +0.000 OA
ATOM     59  H   UNL     1      -1.089  -8.198  -1.686  0.00  0.00    +0.000 HD
ENDBRANCH  27  58
BRANCH  19  60
ATOM     60  O   UNL     1       6.639  -5.192   0.446  0.00  0.00    +0.000 OA
ATOM     61  H   UNL     1       6.855  -4.636   1.218  0.00  0.00    +0.000 HD
ENDBRANCH  19  60
BRANCH  18  62
ATOM     62  O   UNL     1       5.285  -4.306   2.560  0.00  0.00    +0.000 OA
ATOM     63  H   UNL     1       4.723  -4.146   3.335  0.00  0.00    +0.000 HD
ENDBRANCH  18  62
BRANCH  15  64
ATOM     64  O   UNL     1       1.804  -6.823   3.418  0.00  0.00    +0.000 OA
ATOM     65  H   UNL     1       1.133  -7.180   4.037  0.00  0.00    +0.000 HD
ENDBRANCH  15  64
BRANCH  14  66
ATOM     66  O   UNL     1       0.345  -5.757   5.415  0.00  0.00    +0.000 OA
ATOM     67  H   UNL     1      -0.134  -5.172   6.029  0.00  0.00    +0.000 HD
ENDBRANCH  14  66
BRANCH  13  68
ATOM     68  O   UNL     1       0.239  -3.068   5.746  0.00  0.00    +0.000 OA
ATOM     69  H   UNL     1       0.314  -2.101   5.786  0.00  0.00    +0.000 HD
ENDBRANCH  13  68
TORSDOF 13
