REMARK  Name = 
REMARK  7 active torsions:
REMARK  status: ('A' for Active; 'I' for Inactive)
REMARK    1  A    between atoms: C_1  and  C_2
REMARK    2  A    between atoms: C_2  and  C_11
REMARK    3  A    between atoms: C_3  and  C_4
REMARK    4  A    between atoms: C_4  and  C_5
REMARK    5  A    between atoms: C_5  and  C_6
REMARK    6  A    between atoms: C_6  and  C_10
REMARK    7  A    between atoms: C_7  and  C_8
REMARK                            x       y       z     vdW  Elec       q    Type
REMARK                         _______ _______ _______ _____ _____    ______ ____
ROOT
ATOM      1  C   UNL     1       3.437  -3.471   1.484  0.00  0.00    +0.000 C 
ENDROOT
BRANCH   1   2
ATOM      2  C   UNL     1       2.616  -4.590   2.109  0.00  0.00    +0.000 C 
ATOM      3  C   UNL     1       2.143  -5.681   1.476  0.00  0.00    +0.000 C 
ATOM      4  C   UNL     1       2.289  -4.427   3.573  0.00  0.00    +0.000 C 
BRANCH   3   5
ATOM      5  C   UNL     1       2.307  -6.010   0.045  0.00  0.00    +0.000 C 
ATOM      6  O   UNL     1       1.815  -7.029  -0.427  0.00  0.00    +0.000 OA
ENDBRANCH   3   5
ENDBRANCH   1   2
BRANCH   1   7
ATOM      7  C   UNL     1       2.525  -2.310   1.064  0.00  0.00    +0.000 C 
BRANCH   7  10
ATOM      8  C   UNL     1       1.083   0.136   0.026  0.00  0.00    +0.000 C 
ATOM      9  C   UNL     1       2.584   0.005   0.072  0.00  0.00    +0.000 C 
ATOM     10  C   UNL     1       3.230  -1.088   0.534  0.00  0.00    +0.000 C 
ATOM     11  C   UNL     1       3.338   1.205  -0.439  0.00  0.00    +0.000 C 
ENDBRANCH   7  10
ENDBRANCH   1   7
TORSDOF 4
