REMARK  Name = 
REMARK  9 active torsions:
REMARK  status: ('A' for Active; 'I' for Inactive)
REMARK    1  A    between atoms: C_1  and  C_2
REMARK    2  A    between atoms: C_2  and  C_3
REMARK    3  A    between atoms: C_2  and  C_4
REMARK    4  A    between atoms: C_5  and  O_24
REMARK    5  A    between atoms: C_6  and  O_23
REMARK    6  A    between atoms: C_13  and  C_20
REMARK    7  A    between atoms: C_17  and  C_18
REMARK    8  A    between atoms: C_17  and  C_19
REMARK    9  A    between atoms: C_20  and  O_22
REMARK                            x       y       z     vdW  Elec       q    Type
REMARK                         _______ _______ _______ _____ _____    ______ ____
ROOT
ATOM      1  C   UNL     1       2.766   0.123  -1.555  0.00  0.00    +0.000 A 
ATOM      2  C   UNL     1       2.623   1.345  -2.200  0.00  0.00    +0.000 A 
ATOM      3  C   UNL     1       2.800   1.453  -3.597  0.00  0.00    +0.000 A 
ATOM      4  C   UNL     1       3.039   0.356  -4.449  0.00  0.00    +0.000 A 
ATOM      5  C   UNL     1       3.446  -0.791  -3.748  0.00  0.00    +0.000 A 
ATOM      6  C   UNL     1       3.246  -0.922  -2.351  0.00  0.00    +0.000 A 
ATOM      7  C   UNL     1       4.407  -1.788  -4.343  0.00  0.00    +0.000 C 
ATOM      8  C   UNL     1       4.670  -1.574  -5.808  0.00  0.00    +0.000 C 
ATOM      9  C   UNL     1       4.678  -0.051  -6.239  0.00  0.00    +0.000 C 
ATOM     10  C   UNL     1       3.193   0.458  -6.014  0.00  0.00    +0.000 C 
ATOM     11  C   UNL     1       2.301  -0.432  -7.025  0.00  0.00    +0.000 C 
ATOM     12  C   UNL     1       3.050  -0.904  -8.314  0.00  0.00    +0.000 C 
ATOM     13  C   UNL     1       4.152   0.065  -8.740  0.00  0.00    +0.000 C 
ATOM     14  C   UNL     1       5.275   0.140  -7.683  0.00  0.00    +0.000 C 
ATOM     15  C   UNL     1       6.032   1.491  -7.759  0.00  0.00    +0.000 C 
ATOM     16  C   UNL     1       6.355  -0.914  -8.055  0.00  0.00    +0.000 C 
ENDROOT
BRANCH   1  18
ATOM     17  C   UNL     1       0.930  -0.523  -0.050  0.00  0.00    +0.000 C 
ATOM     18  C   UNL     1       2.402  -0.111  -0.103  0.00  0.00    +0.000 C 
ATOM     19  C   UNL     1       3.259  -1.149   0.633  0.00  0.00    +0.000 C 
ENDBRANCH   1  18
BRANCH  10  20
ATOM     20  C   UNL     1       2.666   1.856  -6.466  0.00  0.00    +0.000 C 
ATOM     21  O   UNL     1       3.253   2.672  -7.154  0.00  0.00    +0.000 OA
BRANCH  20  22
ATOM     22  O   UNL     1       1.348   2.073  -6.143  0.00  0.00    +0.000 OA
ATOM     23  H   UNL     1       1.008   1.425  -5.480  0.00  0.00    +0.000 HD
ENDBRANCH  20  22
ENDBRANCH  10  20
BRANCH   3  24
ATOM     24  O   UNL     1       2.849   2.738  -4.076  0.00  0.00    +0.000 OA
ATOM     25  H   UNL     1       2.742   3.323  -3.297  0.00  0.00    +0.000 HD
ENDBRANCH   3  24
BRANCH   2  26
ATOM     26  O   UNL     1       2.342   2.524  -1.559  0.00  0.00    +0.000 OA
ATOM     27  H   UNL     1       2.299   2.375  -0.603  0.00  0.00    +0.000 HD
ENDBRANCH   2  26
TORSDOF 5
