REMARK  Name = 
REMARK  6 active torsions:
REMARK  status: ('A' for Active; 'I' for Inactive)
REMARK    1  A    between atoms: C_2  and  O_21
REMARK    2  A    between atoms: C_3  and  C_13
REMARK    3  A    between atoms: C_7  and  O_12
REMARK    4  A    between atoms: C_9  and  O_11
REMARK    5  A    between atoms: C_15  and  O_20
REMARK    6  A    between atoms: C_16  and  O_19
REMARK                            x       y       z     vdW  Elec       q    Type
REMARK                         _______ _______ _______ _____ _____    ______ ____
ROOT
ATOM      1  C   UNL     1      -1.281   1.562   0.056  0.00  0.00    +0.000 C 
ATOM      2  C   UNL     1      -2.479   0.719  -0.370  0.00  0.00    +0.000 C 
ATOM      3  C   UNL     1      -2.397  -0.629   0.377  0.00  0.00    +0.000 C 
ATOM      4  O   UNL     1      -1.222  -1.367  -0.009  0.00  0.00    +0.000 OA
ATOM      5  C   UNL     1      -0.056  -0.643   0.008  0.00  0.00    +0.000 A 
ATOM      6  C   UNL     1       1.128  -1.384  -0.041  0.00  0.00    +0.000 A 
ATOM      7  C   UNL     1       2.353  -0.721  -0.018  0.00  0.00    +0.000 A 
ATOM      8  C   UNL     1       2.415   0.665   0.052  0.00  0.00    +0.000 A 
ATOM      9  C   UNL     1       1.230   1.394   0.082  0.00  0.00    +0.000 A 
ATOM     10  C   UNL     1      -0.015   0.759   0.040  0.00  0.00    +0.000 A 
ENDROOT
BRANCH   3  11
ATOM     11  C   UNL     1      -3.605  -1.522   0.131  0.00  0.00    +0.000 A 
ATOM     12  C   UNL     1      -3.970  -1.910  -1.171  0.00  0.00    +0.000 A 
ATOM     13  C   UNL     1      -5.063  -2.749  -1.362  0.00  0.00    +0.000 A 
ATOM     14  C   UNL     1      -5.800  -3.209  -0.275  0.00  0.00    +0.000 A 
ATOM     15  C   UNL     1      -5.469  -2.830   1.015  0.00  0.00    +0.000 A 
ATOM     16  C   UNL     1      -4.372  -1.987   1.218  0.00  0.00    +0.000 A 
BRANCH  14  17
ATOM     17  O   UNL     1      -6.857  -4.050  -0.474  0.00  0.00    +0.000 OA
ATOM     18  H   UNL     1      -6.882  -4.182  -1.443  0.00  0.00    +0.000 HD
ENDBRANCH  14  17
BRANCH  13  19
ATOM     19  O   UNL     1      -5.448  -3.160  -2.609  0.00  0.00    +0.000 OA
ATOM     20  H   UNL     1      -4.847  -2.752  -3.256  0.00  0.00    +0.000 HD
ENDBRANCH  13  19
ENDBRANCH   3  11
BRANCH   7  21
ATOM     21  O   UNL     1       3.536  -1.399  -0.058  0.00  0.00    +0.000 OA
ATOM     22  H   UNL     1       3.346  -2.349  -0.114  0.00  0.00    +0.000 HD
ENDBRANCH   7  21
BRANCH   9  23
ATOM     23  O   UNL     1       1.263   2.759   0.151  0.00  0.00    +0.000 OA
ATOM     24  H   UNL     1       2.190   3.050   0.154  0.00  0.00    +0.000 HD
ENDBRANCH   9  23
BRANCH   2  25
ATOM     25  O   UNL     1      -3.681   1.445  -0.103  0.00  0.00    +0.000 OA
ATOM     26  H   UNL     1      -3.790   1.517   0.859  0.00  0.00    +0.000 HD
ENDBRANCH   2  25
TORSDOF 6
