REMARK  Name = 
REMARK  11 active torsions:
REMARK  status: ('A' for Active; 'I' for Inactive)
REMARK    1  A    between atoms: C_1  and  C_2
REMARK    2  A    between atoms: C_2  and  C_34
REMARK    3  A    between atoms: C_5  and  C_31
REMARK    4  A    between atoms: C_8  and  C_30
REMARK    5  A    between atoms: C_13  and  C_27
REMARK    6  A    between atoms: C_17  and  C_26
REMARK    7  A    between atoms: C_19  and  O_25
REMARK    8  A    between atoms: C_20  and  O_24
REMARK    9  A    between atoms: C_21  and  C_22
REMARK   10  A    between atoms: C_21  and  C_23
REMARK   11  A    between atoms: C_31  and  O_33
REMARK                            x       y       z     vdW  Elec       q    Type
REMARK                         _______ _______ _______ _____ _____    ______ ____
ROOT
ATOM      1  C   UNL     1       4.469  -3.703   4.834  0.00  0.00    +0.000 C 
ATOM      2  C   UNL     1       5.570  -4.262   3.910  0.00  0.00    +0.000 C 
ATOM      3  C   UNL     1       5.473  -5.804   3.945  0.00  0.00    +0.000 C 
ATOM      4  C   UNL     1       6.368  -6.510   2.919  0.00  0.00    +0.000 C 
ATOM      5  C   UNL     1       5.982  -6.066   1.482  0.00  0.00    +0.000 C 
ATOM      6  C   UNL     1       6.856  -6.746   0.421  0.00  0.00    +0.000 C 
ATOM      7  C   UNL     1       6.430  -6.219  -0.967  0.00  0.00    +0.000 C 
ATOM      8  C   UNL     1       6.868  -4.751  -1.141  0.00  0.00    +0.000 C 
ATOM      9  C   UNL     1       6.578  -3.829   0.112  0.00  0.00    +0.000 C 
ATOM     10  C   UNL     1       6.450  -2.477  -0.048  0.00  0.00    +0.000 C 
ATOM     11  C   UNL     1       6.538  -1.697  -1.375  0.00  0.00    +0.000 C 
ATOM     12  C   UNL     1       6.996  -2.672  -2.464  0.00  0.00    +0.000 C 
ATOM     13  C   UNL     1       6.120  -3.979  -2.344  0.00  0.00    +0.000 C 
ATOM     14  C   UNL     1       5.961  -4.654  -3.708  0.00  0.00    +0.000 C 
ATOM     15  C   UNL     1       5.696  -3.655  -4.858  0.00  0.00    +0.000 C 
ATOM     16  C   UNL     1       6.518  -2.317  -4.950  0.00  0.00    +0.000 C 
ATOM     17  C   UNL     1       7.612  -2.266  -3.865  0.00  0.00    +0.000 C 
ATOM     18  C   UNL     1       8.758  -3.279  -4.274  0.00  0.00    +0.000 C 
ATOM     19  C   UNL     1       9.235  -3.305  -5.730  0.00  0.00    +0.000 C 
ATOM     20  C   UNL     1       8.114  -3.158  -6.775  0.00  0.00    +0.000 C 
ATOM     21  C   UNL     1       7.044  -2.085  -6.433  0.00  0.00    +0.000 C 
ATOM     22  C   UNL     1       5.857  -2.210  -7.431  0.00  0.00    +0.000 C 
ATOM     23  C   UNL     1       7.588  -0.660  -6.682  0.00  0.00    +0.000 C 
ATOM     24  C   UNL     1       8.286  -0.892  -3.629  0.00  0.00    +0.000 C 
ATOM     25  C   UNL     1       4.590  -3.741  -1.924  0.00  0.00    +0.000 C 
ATOM     26  C   UNL     1       6.289  -4.520   1.449  0.00  0.00    +0.000 C 
ATOM     27  C   UNL     1       5.373  -3.756   2.462  0.00  0.00    +0.000 C 
ATOM     28  C   UNL     1       8.434  -4.923  -1.364  0.00  0.00    +0.000 C 
ATOM     29  C   UNL     1       6.931  -3.751   4.438  0.00  0.00    +0.000 C 
ENDROOT
BRANCH  20  30
ATOM     30  O   UNL     1       8.699  -2.907  -8.058  0.00  0.00    +0.000 OA
ATOM     31  H   UNL     1       9.603  -2.575  -7.873  0.00  0.00    +0.000 HD
ENDBRANCH  20  30
BRANCH  19  32
ATOM     32  O   UNL     1      10.291  -2.381  -6.004  0.00  0.00    +0.000 OA
ATOM     33  H   UNL     1      10.239  -1.638  -5.385  0.00  0.00    +0.000 HD
ENDBRANCH  19  32
BRANCH   5  34
ATOM     34  C   UNL     1       4.590  -6.708   1.244  0.00  0.00    +0.000 C 
ATOM     35  O   UNL     1       4.414  -7.923   1.343  0.00  0.00    +0.000 OA
BRANCH  34  36
ATOM     36  O   UNL     1       3.584  -5.912   0.872  0.00  0.00    +0.000 OA
ATOM     37  H   UNL     1       3.820  -4.987   0.724  0.00  0.00    +0.000 HD
ENDBRANCH  34  36
ENDBRANCH   5  34
TORSDOF 4
