REMARK  Name = 
REMARK  4 active torsions:
REMARK  status: ('A' for Active; 'I' for Inactive)
REMARK    1  A    between atoms: C_1  and  C_2
REMARK    2  A    between atoms: C_5  and  C_8
REMARK    3  A    between atoms: C_8  and  C_9
REMARK    4  A    between atoms: C_8  and  C_10
REMARK                            x       y       z     vdW  Elec       q    Type
REMARK                         _______ _______ _______ _____ _____    ______ ____
ROOT
ATOM      1  C   UNL     1       2.524  -0.031  -0.019  0.00  0.00    +0.000 C 
ATOM      2  C   UNL     1       1.024  -0.014  -0.023  0.00  0.00    +0.000 A 
ATOM      3  C   UNL     1       0.289  -1.203  -0.041  0.00  0.00    +0.000 A 
ATOM      4  C   UNL     1      -1.109  -1.174  -0.037  0.00  0.00    +0.000 A 
ATOM      5  C   UNL     1      -1.804   0.045  -0.018  0.00  0.00    +0.000 A 
ATOM      6  C   UNL     1      -1.062   1.234  -0.013  0.00  0.00    +0.000 A 
ATOM      7  C   UNL     1       0.337   1.205  -0.013  0.00  0.00    +0.000 A 
ENDROOT
BRANCH   5   8
ATOM      8  C   UNL     1      -3.322   0.047   0.003  0.00  0.00    +0.000 C 
ATOM      9  C   UNL     1      -3.868   0.726   1.263  0.00  0.00    +0.000 C 
ATOM     10  C   UNL     1      -3.910   0.689  -1.255  0.00  0.00    +0.000 C 
ENDBRANCH   5   8
TORSDOF 1
