MODEL 1
REMARK VINA RESULT:      -7.7      0.000      0.000
REMARK  Name = 
REMARK  11 active torsions:
REMARK  status: ('A' for Active; 'I' for Inactive)
REMARK    1  A    between atoms: C_2  and  O_21
REMARK    2  A    between atoms: C_3  and  C_13
REMARK    3  A    between atoms: C_7  and  O_12
REMARK    4  A    between atoms: C_9  and  O_11
REMARK    5  A    between atoms: C_15  and  O_20
REMARK    6  A    between atoms: C_16  and  O_19
REMARK    7  A    between atoms: O_21  and  C_22
REMARK    8  A    between atoms: C_22  and  C_24
REMARK    9  A    between atoms: C_26  and  O_32
REMARK   10  A    between atoms: C_27  and  O_31
REMARK   11  A    between atoms: C_28  and  O_30
REMARK                            x       y       z     vdW  Elec       q    Type
REMARK                         _______ _______ _______ _____ _____    ______ ____
ROOT
ATOM      1  C   UNL     1       9.282  -1.621  22.541  0.00  0.00    +0.000 C 
ATOM      2  C   UNL     1       9.617  -2.499  23.750  0.00  0.00    +0.000 C 
ATOM      3  C   UNL     1       9.366  -1.699  25.054  0.00  0.00    +0.000 C 
ATOM      4  O   UNL     1      10.282  -0.578  25.095  0.00  0.00    +0.000 OA
ATOM      5  C   UNL     1      10.249   0.223  23.976  0.00  0.00    +0.000 A 
ATOM      6  C   UNL     1      10.662   1.544  24.171  0.00  0.00    +0.000 A 
ATOM      7  C   UNL     1      10.474   2.471  23.153  0.00  0.00    +0.000 A 
ATOM      8  C   UNL     1       9.919   2.090  21.937  0.00  0.00    +0.000 A 
ATOM      9  C   UNL     1       9.557   0.759  21.738  0.00  0.00    +0.000 A 
ATOM     10  C   UNL     1       9.724  -0.197  22.746  0.00  0.00    +0.000 A 
ENDROOT
BRANCH   3  11
ATOM     11  C   UNL     1       7.910  -1.301  25.357  0.00  0.00    +0.000 A 
ATOM     12  C   UNL     1       7.614  -0.563  26.519  0.00  0.00    +0.000 A 
ATOM     13  C   UNL     1       6.294  -0.250  26.836  0.00  0.00    +0.000 A 
ATOM     14  C   UNL     1       5.253  -0.643  26.003  0.00  0.00    +0.000 A 
ATOM     15  C   UNL     1       5.513  -1.324  24.831  0.00  0.00    +0.000 A 
ATOM     16  C   UNL     1       6.836  -1.632  24.504  0.00  0.00    +0.000 A 
BRANCH  14  17
ATOM     17  O   UNL     1       3.961  -0.352  26.331  0.00  0.00    +0.000 OA
ATOM     18  H   UNL     1       3.968   0.608  26.511  0.00  0.00    +0.000 HD
ENDBRANCH  14  17
BRANCH  13  19
ATOM     19  O   UNL     1       5.968   0.446  27.968  0.00  0.00    +0.000 OA
ATOM     20  H   UNL     1       5.025   0.678  27.928  0.00  0.00    +0.000 HD
ENDBRANCH  13  19
ENDBRANCH   3  11
BRANCH   7  21
ATOM     21  O   UNL     1      10.787   3.788  23.325  0.00  0.00    +0.000 OA
ATOM     22  H   UNL     1      10.458   4.076  24.193  0.00  0.00    +0.000 HD
ENDBRANCH   7  21
BRANCH   9  23
ATOM     23  O   UNL     1       8.989   0.370  20.558  0.00  0.00    +0.000 OA
ATOM     24  H   UNL     1       9.643   0.482  19.847  0.00  0.00    +0.000 HD
ENDBRANCH   9  23
BRANCH   2  25
ATOM     25  O   UNL     1       8.874  -3.740  23.716  0.00  0.00    +0.000 OA
BRANCH  25  26
ATOM     26  C   UNL     1       9.118  -4.599  24.739  0.00  0.00    +0.000 C 
ATOM     27  O   UNL     1      10.221  -4.978  25.101  0.00  0.00    +0.000 OA
BRANCH  26  28
ATOM     28  C   UNL     1       7.863  -5.040  25.412  0.00  0.00    +0.000 A 
ATOM     29  C   UNL     1       7.881  -5.158  26.816  0.00  0.00    +0.000 A 
ATOM     30  C   UNL     1       6.740  -5.579  27.491  0.00  0.00    +0.000 A 
ATOM     31  C   UNL     1       5.585  -5.885  26.782  0.00  0.00    +0.000 A 
ATOM     32  C   UNL     1       5.563  -5.767  25.398  0.00  0.00    +0.000 A 
ATOM     33  C   UNL     1       6.694  -5.349  24.702  0.00  0.00    +0.000 A 
BRANCH  30  34
ATOM     34  O   UNL     1       6.705  -5.713  28.849  0.00  0.00    +0.000 OA
ATOM     35  H   UNL     1       7.610  -5.612  29.195  0.00  0.00    +0.000 HD
ENDBRANCH  30  34
BRANCH  32  36
ATOM     36  O   UNL     1       4.426  -6.067  24.705  0.00  0.00    +0.000 OA
ATOM     37  H   UNL     1       4.256  -5.275  24.153  0.00  0.00    +0.000 HD
ENDBRANCH  32  36
BRANCH  31  38
ATOM     38  O   UNL     1       4.458  -6.308  27.431  0.00  0.00    +0.000 OA
ATOM     39  H   UNL     1       4.436  -5.776  28.255  0.00  0.00    +0.000 HD
ENDBRANCH  31  38
ENDBRANCH  26  28
ENDBRANCH  25  26
ENDBRANCH   2  25
TORSDOF 11
ENDMDL
MODEL 2
REMARK VINA RESULT:      -7.6      1.986      7.933
REMARK  Name = 
REMARK  11 active torsions:
REMARK  status: ('A' for Active; 'I' for Inactive)
REMARK    1  A    between atoms: C_2  and  O_21
REMARK    2  A    between atoms: C_3  and  C_13
REMARK    3  A    between atoms: C_7  and  O_12
REMARK    4  A    between atoms: C_9  and  O_11
REMARK    5  A    between atoms: C_15  and  O_20
REMARK    6  A    between atoms: C_16  and  O_19
REMARK    7  A    between atoms: O_21  and  C_22
REMARK    8  A    between atoms: C_22  and  C_24
REMARK    9  A    between atoms: C_26  and  O_32
REMARK   10  A    between atoms: C_27  and  O_31
REMARK   11  A    between atoms: C_28  and  O_30
REMARK                            x       y       z     vdW  Elec       q    Type
REMARK                         _______ _______ _______ _____ _____    ______ ____
ROOT
ATOM      1  C   UNL     1       5.648  -2.765  26.918  0.00  0.00    +0.000 C 
ATOM      2  C   UNL     1       7.150  -2.733  26.625  0.00  0.00    +0.000 C 
ATOM      3  C   UNL     1       7.624  -4.147  26.203  0.00  0.00    +0.000 C 
ATOM      4  O   UNL     1       7.443  -5.050  27.321  0.00  0.00    +0.000 OA
ATOM      5  C   UNL     1       6.169  -5.060  27.842  0.00  0.00    +0.000 A 
ATOM      6  C   UNL     1       5.801  -6.234  28.504  0.00  0.00    +0.000 A 
ATOM      7  C   UNL     1       4.477  -6.411  28.886  0.00  0.00    +0.000 A 
ATOM      8  C   UNL     1       3.530  -5.420  28.652  0.00  0.00    +0.000 A 
ATOM      9  C   UNL     1       3.922  -4.233  28.035  0.00  0.00    +0.000 A 
ATOM     10  C   UNL     1       5.245  -4.028  27.630  0.00  0.00    +0.000 A 
ENDROOT
BRANCH   3  11
ATOM     11  C   UNL     1       7.065  -4.703  24.880  0.00  0.00    +0.000 A 
ATOM     12  C   UNL     1       6.058  -5.685  24.905  0.00  0.00    +0.000 A 
ATOM     13  C   UNL     1       5.588  -6.241  23.717  0.00  0.00    +0.000 A 
ATOM     14  C   UNL     1       6.091  -5.821  22.491  0.00  0.00    +0.000 A 
ATOM     15  C   UNL     1       7.043  -4.824  22.430  0.00  0.00    +0.000 A 
ATOM     16  C   UNL     1       7.511  -4.258  23.619  0.00  0.00    +0.000 A 
BRANCH  14  17
ATOM     17  O   UNL     1       5.642  -6.385  21.333  0.00  0.00    +0.000 OA
ATOM     18  H   UNL     1       5.462  -5.623  20.748  0.00  0.00    +0.000 HD
ENDBRANCH  14  17
BRANCH  13  19
ATOM     19  O   UNL     1       4.625  -7.213  23.705  0.00  0.00    +0.000 OA
ATOM     20  H   UNL     1       3.898  -6.921  23.128  0.00  0.00    +0.000 HD
ENDBRANCH  13  19
ENDBRANCH   3  11
BRANCH   7  21
ATOM     21  O   UNL     1       4.052  -7.573  29.462  0.00  0.00    +0.000 OA
ATOM     22  H   UNL     1       3.264  -7.384  30.001  0.00  0.00    +0.000 HD
ENDBRANCH   7  21
BRANCH   9  23
ATOM     23  O   UNL     1       3.001  -3.257  27.776  0.00  0.00    +0.000 OA
ATOM     24  H   UNL     1       2.364  -3.596  27.125  0.00  0.00    +0.000 HD
ENDBRANCH   9  23
BRANCH   2  25
ATOM     25  O   UNL     1       7.468  -1.728  25.632  0.00  0.00    +0.000 OA
BRANCH  25  26
ATOM     26  C   UNL     1       8.532  -0.935  25.919  0.00  0.00    +0.000 C 
ATOM     27  O   UNL     1       9.076  -0.842  27.008  0.00  0.00    +0.000 OA
BRANCH  26  28
ATOM     28  C   UNL     1       8.998  -0.170  24.728  0.00  0.00    +0.000 A 
ATOM     29  C   UNL     1       9.247   1.208  24.891  0.00  0.00    +0.000 A 
ATOM     30  C   UNL     1       9.669   1.969  23.806  0.00  0.00    +0.000 A 
ATOM     31  C   UNL     1       9.845   1.372  22.563  0.00  0.00    +0.000 A 
ATOM     32  C   UNL     1       9.603   0.014  22.400  0.00  0.00    +0.000 A 
ATOM     33  C   UNL     1       9.178  -0.766  23.471  0.00  0.00    +0.000 A 
BRANCH  30  34
ATOM     34  O   UNL     1       9.922   3.306  23.909  0.00  0.00    +0.000 OA
ATOM     35  H   UNL     1       9.485   3.763  23.167  0.00  0.00    +0.000 HD
ENDBRANCH  30  34
BRANCH  32  36
ATOM     36  O   UNL     1       9.777  -0.568  21.177  0.00  0.00    +0.000 OA
ATOM     37  H   UNL     1      10.663  -0.266  20.884  0.00  0.00    +0.000 HD
ENDBRANCH  32  36
BRANCH  31  38
ATOM     38  O   UNL     1      10.252   2.110  21.486  0.00  0.00    +0.000 OA
ATOM     39  H   UNL     1      10.031   1.553  20.710  0.00  0.00    +0.000 HD
ENDBRANCH  31  38
ENDBRANCH  26  28
ENDBRANCH  25  26
ENDBRANCH   2  25
TORSDOF 11
ENDMDL
MODEL 3
REMARK VINA RESULT:      -7.6      1.976      8.006
REMARK  Name = 
REMARK  11 active torsions:
REMARK  status: ('A' for Active; 'I' for Inactive)
REMARK    1  A    between atoms: C_2  and  O_21
REMARK    2  A    between atoms: C_3  and  C_13
REMARK    3  A    between atoms: C_7  and  O_12
REMARK    4  A    between atoms: C_9  and  O_11
REMARK    5  A    between atoms: C_15  and  O_20
REMARK    6  A    between atoms: C_16  and  O_19
REMARK    7  A    between atoms: O_21  and  C_22
REMARK    8  A    between atoms: C_22  and  C_24
REMARK    9  A    between atoms: C_26  and  O_32
REMARK   10  A    between atoms: C_27  and  O_31
REMARK   11  A    between atoms: C_28  and  O_30
REMARK                            x       y       z     vdW  Elec       q    Type
REMARK                         _______ _______ _______ _____ _____    ______ ____
ROOT
ATOM      1  C   UNL     1       5.732  -2.780  26.893  0.00  0.00    +0.000 C 
ATOM      2  C   UNL     1       7.233  -2.777  26.596  0.00  0.00    +0.000 C 
ATOM      3  C   UNL     1       7.680  -4.201  26.177  0.00  0.00    +0.000 C 
ATOM      4  O   UNL     1       7.485  -5.097  27.298  0.00  0.00    +0.000 OA
ATOM      5  C   UNL     1       6.213  -5.081  27.823  0.00  0.00    +0.000 A 
ATOM      6  C   UNL     1       5.824  -6.247  28.490  0.00  0.00    +0.000 A 
ATOM      7  C   UNL     1       4.498  -6.398  28.876  0.00  0.00    +0.000 A 
ATOM      8  C   UNL     1       3.570  -5.390  28.642  0.00  0.00    +0.000 A 
ATOM      9  C   UNL     1       3.982  -4.212  28.020  0.00  0.00    +0.000 A 
ATOM     10  C   UNL     1       5.308  -4.033  27.611  0.00  0.00    +0.000 A 
ENDROOT
BRANCH   3  11
ATOM     11  C   UNL     1       7.106  -4.750  24.857  0.00  0.00    +0.000 A 
ATOM     12  C   UNL     1       6.077  -5.709  24.888  0.00  0.00    +0.000 A 
ATOM     13  C   UNL     1       5.593  -6.260  23.703  0.00  0.00    +0.000 A 
ATOM     14  C   UNL     1       6.103  -5.857  22.475  0.00  0.00    +0.000 A 
ATOM     15  C   UNL     1       7.078  -4.882  22.408  0.00  0.00    +0.000 A 
ATOM     16  C   UNL     1       7.560  -4.321  23.593  0.00  0.00    +0.000 A 
BRANCH  14  17
ATOM     17  O   UNL     1       5.640  -6.415  21.320  0.00  0.00    +0.000 OA
ATOM     18  H   UNL     1       5.641  -7.376  21.498  0.00  0.00    +0.000 HD
ENDBRANCH  14  17
BRANCH  13  19
ATOM     19  O   UNL     1       4.608  -7.209  23.697  0.00  0.00    +0.000 OA
ATOM     20  H   UNL     1       4.899  -7.961  24.241  0.00  0.00    +0.000 HD
ENDBRANCH  13  19
ENDBRANCH   3  11
BRANCH   7  21
ATOM     21  O   UNL     1       4.053  -7.549  29.456  0.00  0.00    +0.000 OA
ATOM     22  H   UNL     1       4.146  -7.468  30.421  0.00  0.00    +0.000 HD
ENDBRANCH   7  21
BRANCH   9  23
ATOM     23  O   UNL     1       3.079  -3.220  27.762  0.00  0.00    +0.000 OA
ATOM     24  H   UNL     1       3.233  -2.888  26.861  0.00  0.00    +0.000 HD
ENDBRANCH   9  23
BRANCH   2  25
ATOM     25  O   UNL     1       7.567  -1.781  25.600  0.00  0.00    +0.000 OA
BRANCH  25  26
ATOM     26  C   UNL     1       8.564  -0.923  25.937  0.00  0.00    +0.000 C 
ATOM     27  O   UNL     1       9.077  -0.829  27.040  0.00  0.00    +0.000 OA
BRANCH  26  28
ATOM     28  C   UNL     1       8.997  -0.087  24.782  0.00  0.00    +0.000 A 
ATOM     29  C   UNL     1       9.162  -0.726  23.536  0.00  0.00    +0.000 A 
ATOM     30  C   UNL     1       9.579   0.008  22.430  0.00  0.00    +0.000 A 
ATOM     31  C   UNL     1       9.834   1.369  22.554  0.00  0.00    +0.000 A 
ATOM     32  C   UNL     1       9.670   2.002  23.779  0.00  0.00    +0.000 A 
ATOM     33  C   UNL     1       9.256   1.287  24.899  0.00  0.00    +0.000 A 
BRANCH  30  34
ATOM     34  O   UNL     1       9.756  -0.562  21.203  0.00  0.00    +0.000 OA
ATOM     35  H   UNL     1      10.698  -0.494  20.962  0.00  0.00    +0.000 HD
ENDBRANCH  30  34
BRANCH  32  36
ATOM     36  O   UNL     1       9.921   3.339  23.896  0.00  0.00    +0.000 OA
ATOM     37  H   UNL     1      10.600   3.523  23.213  0.00  0.00    +0.000 HD
ENDBRANCH  32  36
BRANCH  31  38
ATOM     38  O   UNL     1      10.253   2.100  21.477  0.00  0.00    +0.000 OA
ATOM     39  H   UNL     1      11.167   2.373  21.707  0.00  0.00    +0.000 HD
ENDBRANCH  31  38
ENDBRANCH  26  28
ENDBRANCH  25  26
ENDBRANCH   2  25
TORSDOF 11
ENDMDL
MODEL 4
REMARK VINA RESULT:      -7.5      2.021      4.430
REMARK  Name = 
REMARK  11 active torsions:
REMARK  status: ('A' for Active; 'I' for Inactive)
REMARK    1  A    between atoms: C_2  and  O_21
REMARK    2  A    between atoms: C_3  and  C_13
REMARK    3  A    between atoms: C_7  and  O_12
REMARK    4  A    between atoms: C_9  and  O_11
REMARK    5  A    between atoms: C_15  and  O_20
REMARK    6  A    between atoms: C_16  and  O_19
REMARK    7  A    between atoms: O_21  and  C_22
REMARK    8  A    between atoms: C_22  and  C_24
REMARK    9  A    between atoms: C_26  and  O_32
REMARK   10  A    between atoms: C_27  and  O_31
REMARK   11  A    between atoms: C_28  and  O_30
REMARK                            x       y       z     vdW  Elec       q    Type
REMARK                         _______ _______ _______ _____ _____    ______ ____
ROOT
ATOM      1  C   UNL     1       6.422  -0.393  25.559  0.00  0.00    +0.000 C 
ATOM      2  C   UNL     1       5.472  -1.435  24.965  0.00  0.00    +0.000 C 
ATOM      3  C   UNL     1       6.215  -2.248  23.874  0.00  0.00    +0.000 C 
ATOM      4  O   UNL     1       6.572  -1.354  22.791  0.00  0.00    +0.000 OA
ATOM      5  C   UNL     1       7.278  -0.240  23.185  0.00  0.00    +0.000 A 
ATOM      6  C   UNL     1       8.089   0.335  22.202  0.00  0.00    +0.000 A 
ATOM      7  C   UNL     1       8.984   1.335  22.561  0.00  0.00    +0.000 A 
ATOM      8  C   UNL     1       9.052   1.793  23.872  0.00  0.00    +0.000 A 
ATOM      9  C   UNL     1       8.203   1.245  24.832  0.00  0.00    +0.000 A 
ATOM     10  C   UNL     1       7.298   0.230  24.505  0.00  0.00    +0.000 A 
ENDROOT
BRANCH   3  11
ATOM     11  C   UNL     1       7.388  -3.131  24.340  0.00  0.00    +0.000 A 
ATOM     12  C   UNL     1       7.154  -4.183  25.245  0.00  0.00    +0.000 A 
ATOM     13  C   UNL     1       8.216  -4.949  25.722  0.00  0.00    +0.000 A 
ATOM     14  C   UNL     1       9.516  -4.699  25.298  0.00  0.00    +0.000 A 
ATOM     15  C   UNL     1       9.772  -3.707  24.373  0.00  0.00    +0.000 A 
ATOM     16  C   UNL     1       8.710  -2.942  23.886  0.00  0.00    +0.000 A 
BRANCH  14  17
ATOM     17  O   UNL     1      10.554  -5.439  25.786  0.00  0.00    +0.000 OA
ATOM     18  H   UNL     1      11.229  -5.402  25.081  0.00  0.00    +0.000 HD
ENDBRANCH  14  17
BRANCH  13  19
ATOM     19  O   UNL     1       8.029  -5.965  26.618  0.00  0.00    +0.000 OA
ATOM     20  H   UNL     1       8.556  -6.731  26.332  0.00  0.00    +0.000 HD
ENDBRANCH  13  19
ENDBRANCH   3  11
BRANCH   7  21
ATOM     21  O   UNL     1       9.851   1.872  21.655  0.00  0.00    +0.000 OA
ATOM     22  H   UNL     1      10.761   1.682  21.944  0.00  0.00    +0.000 HD
ENDBRANCH   7  21
BRANCH   9  23
ATOM     23  O   UNL     1       8.271   1.666  26.130  0.00  0.00    +0.000 OA
ATOM     24  H   UNL     1       7.777   1.040  26.686  0.00  0.00    +0.000 HD
ENDBRANCH   9  23
BRANCH   2  25
ATOM     25  O   UNL     1       4.915  -2.284  25.997  0.00  0.00    +0.000 OA
BRANCH  25  26
ATOM     26  C   UNL     1       3.635  -2.690  25.796  0.00  0.00    +0.000 C 
ATOM     27  O   UNL     1       2.641  -1.991  25.911  0.00  0.00    +0.000 OA
BRANCH  26  28
ATOM     28  C   UNL     1       3.560  -4.123  25.390  0.00  0.00    +0.000 A 
ATOM     29  C   UNL     1       3.720  -5.097  26.397  0.00  0.00    +0.000 A 
ATOM     30  C   UNL     1       3.672  -6.448  26.067  0.00  0.00    +0.000 A 
ATOM     31  C   UNL     1       3.467  -6.836  24.749  0.00  0.00    +0.000 A 
ATOM     32  C   UNL     1       3.306  -5.878  23.756  0.00  0.00    +0.000 A 
ATOM     33  C   UNL     1       3.352  -4.522  24.062  0.00  0.00    +0.000 A 
BRANCH  30  34
ATOM     34  O   UNL     1       3.824  -7.431  27.002  0.00  0.00    +0.000 OA
ATOM     35  H   UNL     1       4.371  -7.084  27.731  0.00  0.00    +0.000 HD
ENDBRANCH  30  34
BRANCH  32  36
ATOM     36  O   UNL     1       3.104  -6.265  22.462  0.00  0.00    +0.000 OA
ATOM     37  H   UNL     1       2.191  -6.620  22.450  0.00  0.00    +0.000 HD
ENDBRANCH  32  36
BRANCH  31  38
ATOM     38  O   UNL     1       3.426  -8.160  24.410  0.00  0.00    +0.000 OA
ATOM     39  H   UNL     1       4.317  -8.347  24.044  0.00  0.00    +0.000 HD
ENDBRANCH  31  38
ENDBRANCH  26  28
ENDBRANCH  25  26
ENDBRANCH   2  25
TORSDOF 11
ENDMDL
MODEL 5
REMARK VINA RESULT:      -7.5      1.603      2.305
REMARK  Name = 
REMARK  11 active torsions:
REMARK  status: ('A' for Active; 'I' for Inactive)
REMARK    1  A    between atoms: C_2  and  O_21
REMARK    2  A    between atoms: C_3  and  C_13
REMARK    3  A    between atoms: C_7  and  O_12
REMARK    4  A    between atoms: C_9  and  O_11
REMARK    5  A    between atoms: C_15  and  O_20
REMARK    6  A    between atoms: C_16  and  O_19
REMARK    7  A    between atoms: O_21  and  C_22
REMARK    8  A    between atoms: C_22  and  C_24
REMARK    9  A    between atoms: C_26  and  O_32
REMARK   10  A    between atoms: C_27  and  O_31
REMARK   11  A    between atoms: C_28  and  O_30
REMARK                            x       y       z     vdW  Elec       q    Type
REMARK                         _______ _______ _______ _____ _____    ______ ____
ROOT
ATOM      1  C   UNL     1       9.110  -1.885  23.691  0.00  0.00    +0.000 C 
ATOM      2  C   UNL     1       9.331  -2.269  25.156  0.00  0.00    +0.000 C 
ATOM      3  C   UNL     1       9.048  -1.041  26.060  0.00  0.00    +0.000 C 
ATOM      4  O   UNL     1      10.017  -0.008  25.755  0.00  0.00    +0.000 OA
ATOM      5  C   UNL     1      10.088   0.329  24.422  0.00  0.00    +0.000 A 
ATOM      6  C   UNL     1      10.556   1.618  24.153  0.00  0.00    +0.000 A 
ATOM      7  C   UNL     1      10.474   2.113  22.858  0.00  0.00    +0.000 A 
ATOM      8  C   UNL     1       9.969   1.329  21.827  0.00  0.00    +0.000 A 
ATOM      9  C   UNL     1       9.551   0.027  22.100  0.00  0.00    +0.000 A 
ATOM     10  C   UNL     1       9.612  -0.498  23.396  0.00  0.00    +0.000 A 
ENDROOT
BRANCH   3  11
ATOM     11  C   UNL     1       7.600  -0.520  26.093  0.00  0.00    +0.000 A 
ATOM     12  C   UNL     1       6.530  -1.414  25.902  0.00  0.00    +0.000 A 
ATOM     13  C   UNL     1       5.219  -0.945  25.868  0.00  0.00    +0.000 A 
ATOM     14  C   UNL     1       4.945   0.407  26.042  0.00  0.00    +0.000 A 
ATOM     15  C   UNL     1       5.968   1.302  26.282  0.00  0.00    +0.000 A 
ATOM     16  C   UNL     1       7.284   0.835  26.326  0.00  0.00    +0.000 A 
BRANCH  14  17
ATOM     17  O   UNL     1       3.661   0.863  25.987  0.00  0.00    +0.000 OA
ATOM     18  H   UNL     1       3.648   1.624  26.599  0.00  0.00    +0.000 HD
ENDBRANCH  14  17
BRANCH  13  19
ATOM     19  O   UNL     1       4.157  -1.782  25.662  0.00  0.00    +0.000 OA
ATOM     20  H   UNL     1       3.858  -1.683  24.742  0.00  0.00    +0.000 HD
ENDBRANCH  13  19
ENDBRANCH   3  11
BRANCH   7  21
ATOM     21  O   UNL     1      10.843   3.392  22.561  0.00  0.00    +0.000 OA
ATOM     22  H   UNL     1      10.041   3.921  22.410  0.00  0.00    +0.000 HD
ENDBRANCH   7  21
BRANCH   9  23
ATOM     23  O   UNL     1       9.031  -0.751  21.104  0.00  0.00    +0.000 OA
ATOM     24  H   UNL     1       9.451  -1.627  21.144  0.00  0.00    +0.000 HD
ENDBRANCH   9  23
BRANCH   2  25
ATOM     25  O   UNL     1       8.528  -3.416  25.523  0.00  0.00    +0.000 OA
BRANCH  25  26
ATOM     26  C   UNL     1       8.661  -4.505  24.723  0.00  0.00    +0.000 C 
ATOM     27  O   UNL     1       9.698  -5.116  24.519  0.00  0.00    +0.000 OA
BRANCH  26  28
ATOM     28  C   UNL     1       7.364  -4.909  24.107  0.00  0.00    +0.000 A 
ATOM     29  C   UNL     1       6.192  -4.715  24.865  0.00  0.00    +0.000 A 
ATOM     30  C   UNL     1       4.958  -5.089  24.341  0.00  0.00    +0.000 A 
ATOM     31  C   UNL     1       4.883  -5.653  23.073  0.00  0.00    +0.000 A 
ATOM     32  C   UNL     1       6.036  -5.843  22.323  0.00  0.00    +0.000 A 
ATOM     33  C   UNL     1       7.281  -5.478  22.828  0.00  0.00    +0.000 A 
BRANCH  30  34
ATOM     34  O   UNL     1       3.793  -4.926  25.034  0.00  0.00    +0.000 OA
ATOM     35  H   UNL     1       3.762  -5.587  25.749  0.00  0.00    +0.000 HD
ENDBRANCH  30  34
BRANCH  32  36
ATOM     36  O   UNL     1       5.957  -6.397  21.078  0.00  0.00    +0.000 OA
ATOM     37  H   UNL     1       6.799  -6.890  20.973  0.00  0.00    +0.000 HD
ENDBRANCH  32  36
BRANCH  31  38
ATOM     38  O   UNL     1       3.678  -6.033  22.549  0.00  0.00    +0.000 OA
ATOM     39  H   UNL     1       3.912  -6.617  21.796  0.00  0.00    +0.000 HD
ENDBRANCH  31  38
ENDBRANCH  26  28
ENDBRANCH  25  26
ENDBRANCH   2  25
TORSDOF 11
ENDMDL
MODEL 6
REMARK VINA RESULT:      -7.2      2.069      4.300
REMARK  Name = 
REMARK  11 active torsions:
REMARK  status: ('A' for Active; 'I' for Inactive)
REMARK    1  A    between atoms: C_2  and  O_21
REMARK    2  A    between atoms: C_3  and  C_13
REMARK    3  A    between atoms: C_7  and  O_12
REMARK    4  A    between atoms: C_9  and  O_11
REMARK    5  A    between atoms: C_15  and  O_20
REMARK    6  A    between atoms: C_16  and  O_19
REMARK    7  A    between atoms: O_21  and  C_22
REMARK    8  A    between atoms: C_22  and  C_24
REMARK    9  A    between atoms: C_26  and  O_32
REMARK   10  A    between atoms: C_27  and  O_31
REMARK   11  A    between atoms: C_28  and  O_30
REMARK                            x       y       z     vdW  Elec       q    Type
REMARK                         _______ _______ _______ _____ _____    ______ ____
ROOT
ATOM      1  C   UNL     1       7.768  -0.447  25.810  0.00  0.00    +0.000 C 
ATOM      2  C   UNL     1       6.266  -0.636  25.582  0.00  0.00    +0.000 C 
ATOM      3  C   UNL     1       6.006  -0.950  24.087  0.00  0.00    +0.000 C 
ATOM      4  O   UNL     1       6.400   0.198  23.296  0.00  0.00    +0.000 OA
ATOM      5  C   UNL     1       7.687   0.629  23.524  0.00  0.00    +0.000 A 
ATOM      6  C   UNL     1       8.283   1.324  22.468  0.00  0.00    +0.000 A 
ATOM      7  C   UNL     1       9.638   1.622  22.530  0.00  0.00    +0.000 A 
ATOM      8  C   UNL     1      10.394   1.271  23.643  0.00  0.00    +0.000 A 
ATOM      9  C   UNL     1       9.776   0.622  24.711  0.00  0.00    +0.000 A 
ATOM     10  C   UNL     1       8.415   0.300  24.675  0.00  0.00    +0.000 A 
ENDROOT
BRANCH   3  11
ATOM     11  C   UNL     1       6.569  -2.278  23.546  0.00  0.00    +0.000 A 
ATOM     12  C   UNL     1       6.019  -2.848  22.383  0.00  0.00    +0.000 A 
ATOM     13  C   UNL     1       6.477  -4.079  21.919  0.00  0.00    +0.000 A 
ATOM     14  C   UNL     1       7.496  -4.752  22.584  0.00  0.00    +0.000 A 
ATOM     15  C   UNL     1       8.090  -4.196  23.698  0.00  0.00    +0.000 A 
ATOM     16  C   UNL     1       7.640  -2.958  24.162  0.00  0.00    +0.000 A 
BRANCH  14  17
ATOM     17  O   UNL     1       7.925  -5.967  22.137  0.00  0.00    +0.000 OA
ATOM     18  H   UNL     1       7.451  -6.095  21.292  0.00  0.00    +0.000 HD
ENDBRANCH  14  17
BRANCH  13  19
ATOM     19  O   UNL     1       5.951  -4.673  20.804  0.00  0.00    +0.000 OA
ATOM     20  H   UNL     1       5.349  -5.383  21.087  0.00  0.00    +0.000 HD
ENDBRANCH  13  19
ENDBRANCH   3  11
BRANCH   7  21
ATOM     21  O   UNL     1      10.283   2.227  21.490  0.00  0.00    +0.000 OA
ATOM     22  H   UNL     1      10.791   2.980  21.835  0.00  0.00    +0.000 HD
ENDBRANCH   7  21
BRANCH   9  23
ATOM     23  O   UNL     1      10.506   0.250  25.804  0.00  0.00    +0.000 OA
ATOM     24  H   UNL     1      10.011   0.493  26.605  0.00  0.00    +0.000 HD
ENDBRANCH   9  23
BRANCH   2  25
ATOM     25  O   UNL     1       5.728  -1.655  26.458  0.00  0.00    +0.000 OA
BRANCH  25  26
ATOM     26  C   UNL     1       4.443  -2.019  26.217  0.00  0.00    +0.000 C 
ATOM     27  O   UNL     1       3.461  -1.315  26.389  0.00  0.00    +0.000 OA
BRANCH  26  28
ATOM     28  C   UNL     1       4.344  -3.409  25.686  0.00  0.00    +0.000 A 
ATOM     29  C   UNL     1       5.047  -4.421  26.370  0.00  0.00    +0.000 A 
ATOM     30  C   UNL     1       4.998  -5.732  25.906  0.00  0.00    +0.000 A 
ATOM     31  C   UNL     1       4.259  -6.042  24.771  0.00  0.00    +0.000 A 
ATOM     32  C   UNL     1       3.563  -5.047  24.097  0.00  0.00    +0.000 A 
ATOM     33  C   UNL     1       3.599  -3.729  24.541  0.00  0.00    +0.000 A 
BRANCH  30  34
ATOM     34  O   UNL     1       5.662  -6.750  26.529  0.00  0.00    +0.000 OA
ATOM     35  H   UNL     1       5.348  -6.807  27.449  0.00  0.00    +0.000 HD
ENDBRANCH  30  34
BRANCH  32  36
ATOM     36  O   UNL     1       2.838  -5.356  22.982  0.00  0.00    +0.000 OA
ATOM     37  H   UNL     1       2.571  -6.290  23.113  0.00  0.00    +0.000 HD
ENDBRANCH  32  36
BRANCH  31  38
ATOM     38  O   UNL     1       4.209  -7.325  24.299  0.00  0.00    +0.000 OA
ATOM     39  H   UNL     1       3.252  -7.537  24.266  0.00  0.00    +0.000 HD
ENDBRANCH  31  38
ENDBRANCH  26  28
ENDBRANCH  25  26
ENDBRANCH   2  25
TORSDOF 11
ENDMDL
MODEL 7
REMARK VINA RESULT:      -7.1      1.824      4.818
REMARK  Name = 
REMARK  11 active torsions:
REMARK  status: ('A' for Active; 'I' for Inactive)
REMARK    1  A    between atoms: C_2  and  O_21
REMARK    2  A    between atoms: C_3  and  C_13
REMARK    3  A    between atoms: C_7  and  O_12
REMARK    4  A    between atoms: C_9  and  O_11
REMARK    5  A    between atoms: C_15  and  O_20
REMARK    6  A    between atoms: C_16  and  O_19
REMARK    7  A    between atoms: O_21  and  C_22
REMARK    8  A    between atoms: C_22  and  C_24
REMARK    9  A    between atoms: C_26  and  O_32
REMARK   10  A    between atoms: C_27  and  O_31
REMARK   11  A    between atoms: C_28  and  O_30
REMARK                            x       y       z     vdW  Elec       q    Type
REMARK                         _______ _______ _______ _____ _____    ______ ____
ROOT
ATOM      1  C   UNL     1       7.517  -1.336  26.612  0.00  0.00    +0.000 C 
ATOM      2  C   UNL     1       6.818  -2.176  25.539  0.00  0.00    +0.000 C 
ATOM      3  C   UNL     1       6.143  -1.237  24.507  0.00  0.00    +0.000 C 
ATOM      4  O   UNL     1       5.104  -0.481  25.177  0.00  0.00    +0.000 OA
ATOM      5  C   UNL     1       5.528   0.194  26.299  0.00  0.00    +0.000 A 
ATOM      6  C   UNL     1       4.770   1.316  26.646  0.00  0.00    +0.000 A 
ATOM      7  C   UNL     1       5.236   2.168  27.639  0.00  0.00    +0.000 A 
ATOM      8  C   UNL     1       6.421   1.896  28.313  0.00  0.00    +0.000 A 
ATOM      9  C   UNL     1       7.142   0.748  27.991  0.00  0.00    +0.000 A 
ATOM     10  C   UNL     1       6.705  -0.126  26.989  0.00  0.00    +0.000 A 
ENDROOT
BRANCH   3  11
ATOM     11  C   UNL     1       7.074  -0.358  23.652  0.00  0.00    +0.000 A 
ATOM     12  C   UNL     1       8.047  -0.960  22.833  0.00  0.00    +0.000 A 
ATOM     13  C   UNL     1       8.936  -0.174  22.102  0.00  0.00    +0.000 A 
ATOM     14  C   UNL     1       8.862   1.213  22.155  0.00  0.00    +0.000 A 
ATOM     15  C   UNL     1       7.887   1.834  22.909  0.00  0.00    +0.000 A 
ATOM     16  C   UNL     1       6.989   1.050  23.636  0.00  0.00    +0.000 A 
BRANCH  14  17
ATOM     17  O   UNL     1       9.749   1.977  21.454  0.00  0.00    +0.000 OA
ATOM     18  H   UNL     1       9.441   1.917  20.529  0.00  0.00    +0.000 HD
ENDBRANCH  14  17
BRANCH  13  19
ATOM     19  O   UNL     1       9.908  -0.725  21.313  0.00  0.00    +0.000 OA
ATOM     20  H   UNL     1       9.789  -0.401  20.404  0.00  0.00    +0.000 HD
ENDBRANCH  13  19
ENDBRANCH   3  11
BRANCH   7  21
ATOM     21  O   UNL     1       4.574   3.318  27.958  0.00  0.00    +0.000 OA
ATOM     22  H   UNL     1       5.221   4.040  28.033  0.00  0.00    +0.000 HD
ENDBRANCH   7  21
BRANCH   9  23
ATOM     23  O   UNL     1       8.321   0.475  28.626  0.00  0.00    +0.000 OA
ATOM     24  H   UNL     1       8.548  -0.457  28.471  0.00  0.00    +0.000 HD
ENDBRANCH   9  23
BRANCH   2  25
ATOM     25  O   UNL     1       7.741  -3.102  24.917  0.00  0.00    +0.000 OA
BRANCH  25  26
ATOM     26  C   UNL     1       7.778  -4.347  25.458  0.00  0.00    +0.000 C 
ATOM     27  O   UNL     1       8.623  -4.759  26.236  0.00  0.00    +0.000 OA
BRANCH  26  28
ATOM     28  C   UNL     1       6.634  -5.189  25.003  0.00  0.00    +0.000 A 
ATOM     29  C   UNL     1       5.910  -5.893  25.986  0.00  0.00    +0.000 A 
ATOM     30  C   UNL     1       4.843  -6.704  25.611  0.00  0.00    +0.000 A 
ATOM     31  C   UNL     1       4.493  -6.820  24.271  0.00  0.00    +0.000 A 
ATOM     32  C   UNL     1       5.204  -6.124  23.301  0.00  0.00    +0.000 A 
ATOM     33  C   UNL     1       6.275  -5.309  23.653  0.00  0.00    +0.000 A 
BRANCH  30  34
ATOM     34  O   UNL     1       4.111  -7.410  26.522  0.00  0.00    +0.000 OA
ATOM     35  H   UNL     1       3.771  -6.791  27.193  0.00  0.00    +0.000 HD
ENDBRANCH  30  34
BRANCH  32  36
ATOM     36  O   UNL     1       4.856  -6.240  21.986  0.00  0.00    +0.000 OA
ATOM     37  H   UNL     1       5.654  -6.609  21.551  0.00  0.00    +0.000 HD
ENDBRANCH  32  36
BRANCH  31  38
ATOM     38  O   UNL     1       3.452  -7.620  23.888  0.00  0.00    +0.000 OA
ATOM     39  H   UNL     1       3.740  -8.527  24.126  0.00  0.00    +0.000 HD
ENDBRANCH  31  38
ENDBRANCH  26  28
ENDBRANCH  25  26
ENDBRANCH   2  25
TORSDOF 11
ENDMDL
MODEL 8
REMARK VINA RESULT:      -6.9      1.904      4.971
REMARK  Name = 
REMARK  11 active torsions:
REMARK  status: ('A' for Active; 'I' for Inactive)
REMARK    1  A    between atoms: C_2  and  O_21
REMARK    2  A    between atoms: C_3  and  C_13
REMARK    3  A    between atoms: C_7  and  O_12
REMARK    4  A    between atoms: C_9  and  O_11
REMARK    5  A    between atoms: C_15  and  O_20
REMARK    6  A    between atoms: C_16  and  O_19
REMARK    7  A    between atoms: O_21  and  C_22
REMARK    8  A    between atoms: C_22  and  C_24
REMARK    9  A    between atoms: C_26  and  O_32
REMARK   10  A    between atoms: C_27  and  O_31
REMARK   11  A    between atoms: C_28  and  O_30
REMARK                            x       y       z     vdW  Elec       q    Type
REMARK                         _______ _______ _______ _____ _____    ______ ____
ROOT
ATOM      1  C   UNL     1       8.067  -1.398  26.380  0.00  0.00    +0.000 C 
ATOM      2  C   UNL     1       7.609  -2.212  25.167  0.00  0.00    +0.000 C 
ATOM      3  C   UNL     1       7.022  -1.257  24.096  0.00  0.00    +0.000 C 
ATOM      4  O   UNL     1       5.836  -0.625  24.638  0.00  0.00    +0.000 OA
ATOM      5  C   UNL     1       6.029   0.002  25.848  0.00  0.00    +0.000 A 
ATOM      6  C   UNL     1       5.138   1.040  26.134  0.00  0.00    +0.000 A 
ATOM      7  C   UNL     1       5.378   1.855  27.233  0.00  0.00    +0.000 A 
ATOM      8  C   UNL     1       6.467   1.625  28.067  0.00  0.00    +0.000 A 
ATOM      9  C   UNL     1       7.320   0.556  27.797  0.00  0.00    +0.000 A 
ATOM     10  C   UNL     1       7.111  -0.278  26.693  0.00  0.00    +0.000 A 
ENDROOT
BRANCH   3  11
ATOM     11  C   UNL     1       7.996  -0.257  23.446  0.00  0.00    +0.000 A 
ATOM     12  C   UNL     1       7.523   0.993  23.006  0.00  0.00    +0.000 A 
ATOM     13  C   UNL     1       8.381   1.881  22.360  0.00  0.00    +0.000 A 
ATOM     14  C   UNL     1       9.717   1.556  22.158  0.00  0.00    +0.000 A 
ATOM     15  C   UNL     1      10.223   0.358  22.622  0.00  0.00    +0.000 A 
ATOM     16  C   UNL     1       9.369  -0.532  23.278  0.00  0.00    +0.000 A 
BRANCH  14  17
ATOM     17  O   UNL     1      10.546   2.421  21.506  0.00  0.00    +0.000 OA
ATOM     18  H   UNL     1      10.480   3.250  22.017  0.00  0.00    +0.000 HD
ENDBRANCH  14  17
BRANCH  13  19
ATOM     19  O   UNL     1       7.951   3.096  21.900  0.00  0.00    +0.000 OA
ATOM     20  H   UNL     1       8.712   3.573  21.528  0.00  0.00    +0.000 HD
ENDBRANCH  13  19
ENDBRANCH   3  11
BRANCH   7  21
ATOM     21  O   UNL     1       4.584   2.930  27.509  0.00  0.00    +0.000 OA
ATOM     22  H   UNL     1       4.327   2.896  28.446  0.00  0.00    +0.000 HD
ENDBRANCH   7  21
BRANCH   9  23
ATOM     23  O   UNL     1       8.407   0.327  28.592  0.00  0.00    +0.000 OA
ATOM     24  H   UNL     1       8.253   0.744  29.456  0.00  0.00    +0.000 HD
ENDBRANCH   9  23
BRANCH   2  25
ATOM     25  O   UNL     1       8.687  -3.024  24.646  0.00  0.00    +0.000 OA
BRANCH  25  26
ATOM     26  C   UNL     1       8.566  -4.362  24.847  0.00  0.00    +0.000 C 
ATOM     27  O   UNL     1       9.347  -5.060  25.473  0.00  0.00    +0.000 OA
BRANCH  26  28
ATOM     28  C   UNL     1       7.331  -4.912  24.219  0.00  0.00    +0.000 A 
ATOM     29  C   UNL     1       7.229  -4.854  22.814  0.00  0.00    +0.000 A 
ATOM     30  C   UNL     1       6.090  -5.341  22.182  0.00  0.00    +0.000 A 
ATOM     31  C   UNL     1       5.055  -5.884  22.932  0.00  0.00    +0.000 A 
ATOM     32  C   UNL     1       5.153  -5.946  24.317  0.00  0.00    +0.000 A 
ATOM     33  C   UNL     1       6.282  -5.462  24.971  0.00  0.00    +0.000 A 
BRANCH  30  34
ATOM     34  O   UNL     1       5.940  -5.306  20.825  0.00  0.00    +0.000 OA
ATOM     35  H   UNL     1       5.022  -5.049  20.621  0.00  0.00    +0.000 HD
ENDBRANCH  30  34
BRANCH  32  36
ATOM     36  O   UNL     1       4.134  -6.481  25.050  0.00  0.00    +0.000 OA
ATOM     37  H   UNL     1       4.380  -6.302  25.983  0.00  0.00    +0.000 HD
ENDBRANCH  32  36
BRANCH  31  38
ATOM     38  O   UNL     1       3.926  -6.359  22.323  0.00  0.00    +0.000 OA
ATOM     39  H   UNL     1       4.260  -6.922  21.593  0.00  0.00    +0.000 HD
ENDBRANCH  31  38
ENDBRANCH  26  28
ENDBRANCH  25  26
ENDBRANCH   2  25
TORSDOF 11
ENDMDL
MODEL 9
REMARK VINA RESULT:      -6.8      2.205      7.896
REMARK  Name = 
REMARK  11 active torsions:
REMARK  status: ('A' for Active; 'I' for Inactive)
REMARK    1  A    between atoms: C_2  and  O_21
REMARK    2  A    between atoms: C_3  and  C_13
REMARK    3  A    between atoms: C_7  and  O_12
REMARK    4  A    between atoms: C_9  and  O_11
REMARK    5  A    between atoms: C_15  and  O_20
REMARK    6  A    between atoms: C_16  and  O_19
REMARK    7  A    between atoms: O_21  and  C_22
REMARK    8  A    between atoms: C_22  and  C_24
REMARK    9  A    between atoms: C_26  and  O_32
REMARK   10  A    between atoms: C_27  and  O_31
REMARK   11  A    between atoms: C_28  and  O_30
REMARK                            x       y       z     vdW  Elec       q    Type
REMARK                         _______ _______ _______ _____ _____    ______ ____
ROOT
ATOM      1  C   UNL     1       6.769  -2.048  26.147  0.00  0.00    +0.000 C 
ATOM      2  C   UNL     1       8.166  -1.927  25.535  0.00  0.00    +0.000 C 
ATOM      3  C   UNL     1       8.587  -3.293  24.934  0.00  0.00    +0.000 C 
ATOM      4  O   UNL     1       8.692  -4.259  26.009  0.00  0.00    +0.000 OA
ATOM      5  C   UNL     1       7.567  -4.358  26.795  0.00  0.00    +0.000 A 
ATOM      6  C   UNL     1       7.398  -5.581  27.450  0.00  0.00    +0.000 A 
ATOM      7  C   UNL     1       6.199  -5.842  28.101  0.00  0.00    +0.000 A 
ATOM      8  C   UNL     1       5.188  -4.889  28.141  0.00  0.00    +0.000 A 
ATOM      9  C   UNL     1       5.389  -3.654  27.526  0.00  0.00    +0.000 A 
ATOM     10  C   UNL     1       6.581  -3.364  26.853  0.00  0.00    +0.000 A 
ENDROOT
BRANCH   3  11
ATOM     11  C   UNL     1       7.769  -3.808  23.736  0.00  0.00    +0.000 A 
ATOM     12  C   UNL     1       7.599  -5.192  23.549  0.00  0.00    +0.000 A 
ATOM     13  C   UNL     1       6.915  -5.673  22.435  0.00  0.00    +0.000 A 
ATOM     14  C   UNL     1       6.373  -4.795  21.503  0.00  0.00    +0.000 A 
ATOM     15  C   UNL     1       6.479  -3.430  21.684  0.00  0.00    +0.000 A 
ATOM     16  C   UNL     1       7.158  -2.944  22.804  0.00  0.00    +0.000 A 
BRANCH  14  17
ATOM     17  O   UNL     1       5.723  -5.272  20.403  0.00  0.00    +0.000 OA
ATOM     18  H   UNL     1       4.852  -5.557  20.742  0.00  0.00    +0.000 HD
ENDBRANCH  14  17
BRANCH  13  19
ATOM     19  O   UNL     1       6.749  -7.012  22.210  0.00  0.00    +0.000 OA
ATOM     20  H   UNL     1       5.829  -7.169  21.938  0.00  0.00    +0.000 HD
ENDBRANCH  13  19
ENDBRANCH   3  11
BRANCH   7  21
ATOM     21  O   UNL     1       5.956  -7.051  28.686  0.00  0.00    +0.000 OA
ATOM     22  H   UNL     1       6.521  -7.137  29.472  0.00  0.00    +0.000 HD
ENDBRANCH   7  21
BRANCH   9  23
ATOM     23  O   UNL     1       4.399  -2.713  27.535  0.00  0.00    +0.000 OA
ATOM     24  H   UNL     1       4.012  -2.678  28.426  0.00  0.00    +0.000 HD
ENDBRANCH   9  23
BRANCH   2  25
ATOM     25  O   UNL     1       8.219  -0.859  24.559  0.00  0.00    +0.000 OA
BRANCH  25  26
ATOM     26  C   UNL     1       9.437  -0.289  24.376  0.00  0.00    +0.000 C 
ATOM     27  O   UNL     1      10.509  -0.872  24.428  0.00  0.00    +0.000 OA
BRANCH  26  28
ATOM     28  C   UNL     1       9.336   1.168  24.079  0.00  0.00    +0.000 A 
ATOM     29  C   UNL     1       8.055   1.755  24.113  0.00  0.00    +0.000 A 
ATOM     30  C   UNL     1       7.905   3.108  23.828  0.00  0.00    +0.000 A 
ATOM     31  C   UNL     1       9.016   3.880  23.511  0.00  0.00    +0.000 A 
ATOM     32  C   UNL     1      10.280   3.305  23.480  0.00  0.00    +0.000 A 
ATOM     33  C   UNL     1      10.453   1.953  23.758  0.00  0.00    +0.000 A 
BRANCH  30  34
ATOM     34  O   UNL     1       6.687   3.725  23.844  0.00  0.00    +0.000 OA
ATOM     35  H   UNL     1       6.321   3.713  22.941  0.00  0.00    +0.000 HD
ENDBRANCH  30  34
BRANCH  32  36
ATOM     36  O   UNL     1      11.369   4.067  23.168  0.00  0.00    +0.000 OA
ATOM     37  H   UNL     1      11.110   4.547  22.352  0.00  0.00    +0.000 HD
ENDBRANCH  32  36
BRANCH  31  38
ATOM     38  O   UNL     1       8.882   5.210  23.221  0.00  0.00    +0.000 OA
ATOM     39  H   UNL     1       9.645   5.411  22.638  0.00  0.00    +0.000 HD
ENDBRANCH  31  38
ENDBRANCH  26  28
ENDBRANCH  25  26
ENDBRANCH   2  25
TORSDOF 11
ENDMDL
