MODEL 1
REMARK VINA RESULT:      -7.2      0.000      0.000
REMARK  Name = 
REMARK  5 active torsions:
REMARK  status: ('A' for Active; 'I' for Inactive)
REMARK    1  A    between atoms: C_1  and  O_2
REMARK    2  A    between atoms: O_2  and  C_3
REMARK    3  A    between atoms: C_6  and  C_9
REMARK    4  A    between atoms: C_14  and  O_21
REMARK    5  A    between atoms: C_16  and  O_20
REMARK                            x       y       z     vdW  Elec       q    Type
REMARK                         _______ _______ _______ _____ _____    ______ ____
ROOT
ATOM      1  C   UNL     1       8.328  -3.066  23.985  0.00  0.00    +0.000 A 
ATOM      2  C   UNL     1       8.360  -3.152  25.326  0.00  0.00    +0.000 A 
ATOM      3  C   UNL     1       7.846  -4.344  25.971  0.00  0.00    +0.000 A 
ATOM      4  O   UNL     1       8.148  -4.631  27.121  0.00  0.00    +0.000 OA
ATOM      5  C   UNL     1       6.892  -5.117  25.196  0.00  0.00    +0.000 A 
ATOM      6  C   UNL     1       6.022  -5.982  25.862  0.00  0.00    +0.000 A 
ATOM      7  C   UNL     1       4.964  -6.545  25.174  0.00  0.00    +0.000 A 
ATOM      8  C   UNL     1       4.823  -6.270  23.816  0.00  0.00    +0.000 A 
ATOM      9  C   UNL     1       5.736  -5.459  23.124  0.00  0.00    +0.000 A 
ATOM     10  C   UNL     1       6.775  -4.853  23.828  0.00  0.00    +0.000 A 
ATOM     11  O   UNL     1       7.624  -3.966  23.178  0.00  0.00    +0.000 OA
ENDROOT
BRANCH   1  15
ATOM     12  C   UNL     1      10.007   0.563  22.399  0.00  0.00    +0.000 A 
ATOM     13  C   UNL     1      10.195   0.209  23.721  0.00  0.00    +0.000 A 
ATOM     14  C   UNL     1       9.749  -1.024  24.182  0.00  0.00    +0.000 A 
ATOM     15  C   UNL     1       9.014  -1.906  23.358  0.00  0.00    +0.000 A 
ATOM     16  C   UNL     1       8.917  -1.586  22.004  0.00  0.00    +0.000 A 
ATOM     17  C   UNL     1       9.406  -0.350  21.524  0.00  0.00    +0.000 A 
BRANCH  12  19
ATOM     18  C   UNL     1      10.515   2.734  23.194  0.00  0.00    +0.000 C 
ATOM     19  O   UNL     1      10.421   1.830  22.108  0.00  0.00    +0.000 OA
ENDBRANCH  12  19
ENDBRANCH   1  15
BRANCH   8  20
ATOM     20  O   UNL     1       3.752  -6.768  23.128  0.00  0.00    +0.000 OA
ATOM     21  H   UNL     1       4.067  -7.096  22.267  0.00  0.00    +0.000 HD
ENDBRANCH   8  20
BRANCH   6  22
ATOM     22  O   UNL     1       6.131  -6.259  27.199  0.00  0.00    +0.000 OA
ATOM     23  H   UNL     1       5.236  -6.206  27.603  0.00  0.00    +0.000 HD
ENDBRANCH   6  22
TORSDOF 4
ENDMDL
MODEL 2
REMARK VINA RESULT:      -7.1      0.963      1.114
REMARK  Name = 
REMARK  5 active torsions:
REMARK  status: ('A' for Active; 'I' for Inactive)
REMARK    1  A    between atoms: C_1  and  O_2
REMARK    2  A    between atoms: O_2  and  C_3
REMARK    3  A    between atoms: C_6  and  C_9
REMARK    4  A    between atoms: C_14  and  O_21
REMARK    5  A    between atoms: C_16  and  O_20
REMARK                            x       y       z     vdW  Elec       q    Type
REMARK                         _______ _______ _______ _____ _____    ______ ____
ROOT
ATOM      1  C   UNL     1       8.778  -2.266  24.085  0.00  0.00    +0.000 A 
ATOM      2  C   UNL     1       8.694  -2.551  25.396  0.00  0.00    +0.000 A 
ATOM      3  C   UNL     1       8.194  -3.847  25.807  0.00  0.00    +0.000 A 
ATOM      4  O   UNL     1       8.407  -4.289  26.928  0.00  0.00    +0.000 OA
ATOM      5  C   UNL     1       7.361  -4.537  24.840  0.00  0.00    +0.000 A 
ATOM      6  C   UNL     1       6.486  -5.529  25.285  0.00  0.00    +0.000 A 
ATOM      7  C   UNL     1       5.529  -6.030  24.423  0.00  0.00    +0.000 A 
ATOM      8  C   UNL     1       5.495  -5.562  23.112  0.00  0.00    +0.000 A 
ATOM      9  C   UNL     1       6.419  -4.617  22.636  0.00  0.00    +0.000 A 
ATOM     10  C   UNL     1       7.352  -4.077  23.519  0.00  0.00    +0.000 A 
ATOM     11  O   UNL     1       8.204  -3.066  23.091  0.00  0.00    +0.000 OA
ENDROOT
BRANCH   1  15
ATOM     12  C   UNL     1      10.400   1.628  23.242  0.00  0.00    +0.000 A 
ATOM     13  C   UNL     1      10.562   1.041  24.482  0.00  0.00    +0.000 A 
ATOM     14  C   UNL     1      10.138  -0.265  24.695  0.00  0.00    +0.000 A 
ATOM     15  C   UNL     1       9.449  -0.996  23.702  0.00  0.00    +0.000 A 
ATOM     16  C   UNL     1       9.379  -0.435  22.427  0.00  0.00    +0.000 A 
ATOM     17  C   UNL     1       9.848   0.878  22.196  0.00  0.00    +0.000 A 
BRANCH  12  19
ATOM     18  C   UNL     1       9.871   3.887  23.711  0.00  0.00    +0.000 C 
ATOM     19  O   UNL     1      10.787   2.935  23.200  0.00  0.00    +0.000 OA
ENDBRANCH  12  19
ENDBRANCH   1  15
BRANCH   8  20
ATOM     20  O   UNL     1       4.522  -5.998  22.257  0.00  0.00    +0.000 OA
ATOM     21  H   UNL     1       4.936  -6.576  21.592  0.00  0.00    +0.000 HD
ENDBRANCH   8  20
BRANCH   6  22
ATOM     22  O   UNL     1       6.490  -5.998  26.572  0.00  0.00    +0.000 OA
ATOM     23  H   UNL     1       7.183  -5.517  27.078  0.00  0.00    +0.000 HD
ENDBRANCH   6  22
TORSDOF 4
ENDMDL
MODEL 3
REMARK VINA RESULT:      -7.0      1.331      2.742
REMARK  Name = 
REMARK  5 active torsions:
REMARK  status: ('A' for Active; 'I' for Inactive)
REMARK    1  A    between atoms: C_1  and  O_2
REMARK    2  A    between atoms: O_2  and  C_3
REMARK    3  A    between atoms: C_6  and  C_9
REMARK    4  A    between atoms: C_14  and  O_21
REMARK    5  A    between atoms: C_16  and  O_20
REMARK                            x       y       z     vdW  Elec       q    Type
REMARK                         _______ _______ _______ _____ _____    ______ ____
ROOT
ATOM      1  C   UNL     1       7.701  -2.338  23.434  0.00  0.00    +0.000 A 
ATOM      2  C   UNL     1       7.335  -2.834  22.239  0.00  0.00    +0.000 A 
ATOM      3  C   UNL     1       6.206  -3.739  22.165  0.00  0.00    +0.000 A 
ATOM      4  O   UNL     1       5.622  -3.950  21.111  0.00  0.00    +0.000 OA
ATOM      5  C   UNL     1       5.875  -4.435  23.396  0.00  0.00    +0.000 A 
ATOM      6  C   UNL     1       5.140  -5.619  23.327  0.00  0.00    +0.000 A 
ATOM      7  C   UNL     1       5.015  -6.409  24.454  0.00  0.00    +0.000 A 
ATOM      8  C   UNL     1       5.590  -5.975  25.646  0.00  0.00    +0.000 A 
ATOM      9  C   UNL     1       6.268  -4.749  25.740  0.00  0.00    +0.000 A 
ATOM     10  C   UNL     1       6.435  -3.976  24.592  0.00  0.00    +0.000 A 
ATOM     11  O   UNL     1       7.193  -2.813  24.647  0.00  0.00    +0.000 OA
ENDROOT
BRANCH   1  15
ATOM     12  C   UNL     1      10.443   0.966  23.706  0.00  0.00    +0.000 A 
ATOM     13  C   UNL     1      10.152   0.188  24.810  0.00  0.00    +0.000 A 
ATOM     14  C   UNL     1       9.361  -0.946  24.674  0.00  0.00    +0.000 A 
ATOM     15  C   UNL     1       8.754  -1.287  23.444  0.00  0.00    +0.000 A 
ATOM     16  C   UNL     1       9.132  -0.556  22.319  0.00  0.00    +0.000 A 
ATOM     17  C   UNL     1       9.971   0.573  22.448  0.00  0.00    +0.000 A 
BRANCH  12  19
ATOM     18  C   UNL     1      10.732   3.295  23.395  0.00  0.00    +0.000 C 
ATOM     19  O   UNL     1      11.160   2.088  24.002  0.00  0.00    +0.000 OA
ENDBRANCH  12  19
ENDBRANCH   1  15
BRANCH   8  20
ATOM     20  O   UNL     1       5.531  -6.766  26.759  0.00  0.00    +0.000 OA
ATOM     21  H   UNL     1       6.393  -6.727  27.208  0.00  0.00    +0.000 HD
ENDBRANCH   8  20
BRANCH   6  22
ATOM     22  O   UNL     1       4.576  -6.076  22.166  0.00  0.00    +0.000 OA
ATOM     23  H   UNL     1       4.917  -5.535  21.418  0.00  0.00    +0.000 HD
ENDBRANCH   6  22
TORSDOF 4
ENDMDL
MODEL 4
REMARK VINA RESULT:      -6.9      2.157      3.193
REMARK  Name = 
REMARK  5 active torsions:
REMARK  status: ('A' for Active; 'I' for Inactive)
REMARK    1  A    between atoms: C_1  and  O_2
REMARK    2  A    between atoms: O_2  and  C_3
REMARK    3  A    between atoms: C_6  and  C_9
REMARK    4  A    between atoms: C_14  and  O_21
REMARK    5  A    between atoms: C_16  and  O_20
REMARK                            x       y       z     vdW  Elec       q    Type
REMARK                         _______ _______ _______ _____ _____    ______ ____
ROOT
ATOM      1  C   UNL     1       8.680  -0.492  23.315  0.00  0.00    +0.000 A 
ATOM      2  C   UNL     1       9.507  -1.294  24.008  0.00  0.00    +0.000 A 
ATOM      3  C   UNL     1       9.415  -2.729  23.828  0.00  0.00    +0.000 A 
ATOM      4  O   UNL     1      10.330  -3.475  24.150  0.00  0.00    +0.000 OA
ATOM      5  C   UNL     1       8.145  -3.221  23.327  0.00  0.00    +0.000 A 
ATOM      6  C   UNL     1       7.801  -4.556  23.548  0.00  0.00    +0.000 A 
ATOM      7  C   UNL     1       6.512  -4.979  23.285  0.00  0.00    +0.000 A 
ATOM      8  C   UNL     1       5.599  -4.067  22.760  0.00  0.00    +0.000 A 
ATOM      9  C   UNL     1       5.959  -2.742  22.467  0.00  0.00    +0.000 A 
ATOM     10  C   UNL     1       7.245  -2.303  22.777  0.00  0.00    +0.000 A 
ATOM     11  O   UNL     1       7.583  -0.968  22.590  0.00  0.00    +0.000 OA
ENDROOT
BRANCH   1  15
ATOM     12  C   UNL     1       9.741   3.645  23.829  0.00  0.00    +0.000 A 
ATOM     13  C   UNL     1      10.488   2.813  23.017  0.00  0.00    +0.000 A 
ATOM     14  C   UNL     1      10.059   1.515  22.769  0.00  0.00    +0.000 A 
ATOM     15  C   UNL     1       8.918   0.973  23.401  0.00  0.00    +0.000 A 
ATOM     16  C   UNL     1       8.118   1.847  24.136  0.00  0.00    +0.000 A 
ATOM     17  C   UNL     1       8.530   3.181  24.357  0.00  0.00    +0.000 A 
BRANCH  12  19
ATOM     18  C   UNL     1      11.634   5.038  23.547  0.00  0.00    +0.000 C 
ATOM     19  O   UNL     1      10.321   4.860  24.050  0.00  0.00    +0.000 OA
ENDBRANCH  12  19
ENDBRANCH   1  15
BRANCH   8  20
ATOM     20  O   UNL     1       4.304  -4.446  22.547  0.00  0.00    +0.000 OA
ATOM     21  H   UNL     1       3.758  -3.643  22.477  0.00  0.00    +0.000 HD
ENDBRANCH   8  20
BRANCH   6  22
ATOM     22  O   UNL     1       8.675  -5.469  24.075  0.00  0.00    +0.000 OA
ATOM     23  H   UNL     1       8.240  -6.351  24.080  0.00  0.00    +0.000 HD
ENDBRANCH   6  22
TORSDOF 4
ENDMDL
MODEL 5
REMARK VINA RESULT:      -6.9      1.437      3.031
REMARK  Name = 
REMARK  5 active torsions:
REMARK  status: ('A' for Active; 'I' for Inactive)
REMARK    1  A    between atoms: C_1  and  O_2
REMARK    2  A    between atoms: O_2  and  C_3
REMARK    3  A    between atoms: C_6  and  C_9
REMARK    4  A    between atoms: C_14  and  O_21
REMARK    5  A    between atoms: C_16  and  O_20
REMARK                            x       y       z     vdW  Elec       q    Type
REMARK                         _______ _______ _______ _____ _____    ______ ____
ROOT
ATOM      1  C   UNL     1       8.392  -1.423  23.675  0.00  0.00    +0.000 A 
ATOM      2  C   UNL     1       7.876  -2.075  22.619  0.00  0.00    +0.000 A 
ATOM      3  C   UNL     1       6.926  -3.146  22.844  0.00  0.00    +0.000 A 
ATOM      4  O   UNL     1       6.180  -3.538  21.957  0.00  0.00    +0.000 OA
ATOM      5  C   UNL     1       6.982  -3.772  24.153  0.00  0.00    +0.000 A 
ATOM      6  C   UNL     1       6.461  -5.057  24.312  0.00  0.00    +0.000 A 
ATOM      7  C   UNL     1       6.710  -5.752  25.480  0.00  0.00    +0.000 A 
ATOM      8  C   UNL     1       7.438  -5.129  26.491  0.00  0.00    +0.000 A 
ATOM      9  C   UNL     1       7.903  -3.810  26.367  0.00  0.00    +0.000 A 
ATOM     10  C   UNL     1       7.693  -3.127  25.170  0.00  0.00    +0.000 A 
ATOM     11  O   UNL     1       8.236  -1.860  24.994  0.00  0.00    +0.000 OA
ENDROOT
BRANCH   1  15
ATOM     12  C   UNL     1      10.507   2.284  23.127  0.00  0.00    +0.000 A 
ATOM     13  C   UNL     1      10.519   1.628  24.343  0.00  0.00    +0.000 A 
ATOM     14  C   UNL     1       9.933   0.375  24.465  0.00  0.00    +0.000 A 
ATOM     15  C   UNL     1       9.230  -0.226  23.397  0.00  0.00    +0.000 A 
ATOM     16  C   UNL     1       9.308   0.394  22.150  0.00  0.00    +0.000 A 
ATOM     17  C   UNL     1       9.940   1.650  22.013  0.00  0.00    +0.000 A 
BRANCH  12  19
ATOM     18  C   UNL     1      10.254   4.546  23.775  0.00  0.00    +0.000 C 
ATOM     19  O   UNL     1      11.045   3.536  23.174  0.00  0.00    +0.000 OA
ENDBRANCH  12  19
ENDBRANCH   1  15
BRANCH   8  20
ATOM     20  O   UNL     1       7.747  -5.817  27.631  0.00  0.00    +0.000 OA
ATOM     21  H   UNL     1       7.051  -6.479  27.787  0.00  0.00    +0.000 HD
ENDBRANCH   8  20
BRANCH   6  22
ATOM     22  O   UNL     1       5.754  -5.697  23.330  0.00  0.00    +0.000 OA
ATOM     23  H   UNL     1       6.036  -5.340  22.458  0.00  0.00    +0.000 HD
ENDBRANCH   6  22
TORSDOF 4
ENDMDL
MODEL 6
REMARK VINA RESULT:      -6.7      3.082      8.885
REMARK  Name = 
REMARK  5 active torsions:
REMARK  status: ('A' for Active; 'I' for Inactive)
REMARK    1  A    between atoms: C_1  and  O_2
REMARK    2  A    between atoms: O_2  and  C_3
REMARK    3  A    between atoms: C_6  and  C_9
REMARK    4  A    between atoms: C_14  and  O_21
REMARK    5  A    between atoms: C_16  and  O_20
REMARK                            x       y       z     vdW  Elec       q    Type
REMARK                         _______ _______ _______ _____ _____    ______ ____
ROOT
ATOM      1  C   UNL     1       9.416   1.460  23.703  0.00  0.00    +0.000 A 
ATOM      2  C   UNL     1       8.360   2.086  24.250  0.00  0.00    +0.000 A 
ATOM      3  C   UNL     1       8.243   3.524  24.115  0.00  0.00    +0.000 A 
ATOM      4  O   UNL     1       7.175   4.099  24.280  0.00  0.00    +0.000 OA
ATOM      5  C   UNL     1       9.483   4.235  23.861  0.00  0.00    +0.000 A 
ATOM      6  C   UNL     1       9.558   5.596  24.164  0.00  0.00    +0.000 A 
ATOM      7  C   UNL     1      10.785   6.230  24.146  0.00  0.00    +0.000 A 
ATOM      8  C   UNL     1      11.913   5.501  23.778  0.00  0.00    +0.000 A 
ATOM      9  C   UNL     1      11.835   4.151  23.401  0.00  0.00    +0.000 A 
ATOM     10  C   UNL     1      10.604   3.499  23.466  0.00  0.00    +0.000 A 
ATOM     11  O   UNL     1      10.529   2.138  23.197  0.00  0.00    +0.000 OA
ENDROOT
BRANCH   1  15
ATOM     12  C   UNL     1       9.670  -2.813  24.133  0.00  0.00    +0.000 A 
ATOM     13  C   UNL     1       8.895  -2.055  24.990  0.00  0.00    +0.000 A 
ATOM     14  C   UNL     1       8.730  -0.695  24.759  0.00  0.00    +0.000 A 
ATOM     15  C   UNL     1       9.412  -0.027  23.718  0.00  0.00    +0.000 A 
ATOM     16  C   UNL     1      10.109  -0.814  22.801  0.00  0.00    +0.000 A 
ATOM     17  C   UNL     1      10.244  -2.205  23.010  0.00  0.00    +0.000 A 
BRANCH  12  19
ATOM     18  C   UNL     1       9.150  -4.489  25.722  0.00  0.00    +0.000 C 
ATOM     19  O   UNL     1       9.809  -4.112  24.526  0.00  0.00    +0.000 OA
ENDBRANCH  12  19
ENDBRANCH   1  15
BRANCH   8  20
ATOM     20  O   UNL     1      13.146   6.091  23.809  0.00  0.00    +0.000 OA
ATOM     21  H   UNL     1      13.026   7.053  23.721  0.00  0.00    +0.000 HD
ENDBRANCH   8  20
BRANCH   6  22
ATOM     22  O   UNL     1       8.467   6.332  24.541  0.00  0.00    +0.000 OA
ATOM     23  H   UNL     1       8.001   5.854  25.263  0.00  0.00    +0.000 HD
ENDBRANCH   6  22
TORSDOF 4
ENDMDL
MODEL 7
REMARK VINA RESULT:      -6.6      1.124      1.704
REMARK  Name = 
REMARK  5 active torsions:
REMARK  status: ('A' for Active; 'I' for Inactive)
REMARK    1  A    between atoms: C_1  and  O_2
REMARK    2  A    between atoms: O_2  and  C_3
REMARK    3  A    between atoms: C_6  and  C_9
REMARK    4  A    between atoms: C_14  and  O_21
REMARK    5  A    between atoms: C_16  and  O_20
REMARK                            x       y       z     vdW  Elec       q    Type
REMARK                         _______ _______ _______ _____ _____    ______ ____
ROOT
ATOM      1  C   UNL     1       7.468  -3.385  25.090  0.00  0.00    +0.000 A 
ATOM      2  C   UNL     1       7.436  -3.687  26.399  0.00  0.00    +0.000 A 
ATOM      3  C   UNL     1       6.946  -4.987  26.814  0.00  0.00    +0.000 A 
ATOM      4  O   UNL     1       7.201  -5.445  27.919  0.00  0.00    +0.000 OA
ATOM      5  C   UNL     1       6.070  -5.659  25.871  0.00  0.00    +0.000 A 
ATOM      6  C   UNL     1       5.209  -6.653  26.338  0.00  0.00    +0.000 A 
ATOM      7  C   UNL     1       4.215  -7.138  25.509  0.00  0.00    +0.000 A 
ATOM      8  C   UNL     1       4.131  -6.651  24.207  0.00  0.00    +0.000 A 
ATOM      9  C   UNL     1       5.039  -5.704  23.707  0.00  0.00    +0.000 A 
ATOM     10  C   UNL     1       6.011  -5.181  24.559  0.00  0.00    +0.000 A 
ATOM     11  O   UNL     1       6.850  -4.168  24.110  0.00  0.00    +0.000 OA
ENDROOT
BRANCH   1  15
ATOM     12  C   UNL     1       9.737   0.031  23.790  0.00  0.00    +0.000 A 
ATOM     13  C   UNL     1       9.111  -0.799  22.879  0.00  0.00    +0.000 A 
ATOM     14  C   UNL     1       8.284  -1.823  23.324  0.00  0.00    +0.000 A 
ATOM     15  C   UNL     1       8.130  -2.113  24.698  0.00  0.00    +0.000 A 
ATOM     16  C   UNL     1       8.683  -1.213  25.608  0.00  0.00    +0.000 A 
ATOM     17  C   UNL     1       9.490  -0.145  25.158  0.00  0.00    +0.000 A 
BRANCH  12  19
ATOM     18  C   UNL     1      10.039   1.742  22.183  0.00  0.00    +0.000 C 
ATOM     19  O   UNL     1      10.579   0.938  23.217  0.00  0.00    +0.000 OA
ENDBRANCH  12  19
ENDBRANCH   1  15
BRANCH   8  20
ATOM     20  O   UNL     1       3.121  -7.071  23.387  0.00  0.00    +0.000 OA
ATOM     21  H   UNL     1       2.274  -6.802  23.783  0.00  0.00    +0.000 HD
ENDBRANCH   8  20
BRANCH   6  22
ATOM     22  O   UNL     1       5.262  -7.140  27.617  0.00  0.00    +0.000 OA
ATOM     23  H   UNL     1       4.914  -8.059  27.617  0.00  0.00    +0.000 HD
ENDBRANCH   6  22
TORSDOF 4
ENDMDL
MODEL 8
REMARK VINA RESULT:      -6.6      2.343      7.517
REMARK  Name = 
REMARK  5 active torsions:
REMARK  status: ('A' for Active; 'I' for Inactive)
REMARK    1  A    between atoms: C_1  and  O_2
REMARK    2  A    between atoms: O_2  and  C_3
REMARK    3  A    between atoms: C_6  and  C_9
REMARK    4  A    between atoms: C_14  and  O_21
REMARK    5  A    between atoms: C_16  and  O_20
REMARK                            x       y       z     vdW  Elec       q    Type
REMARK                         _______ _______ _______ _____ _____    ______ ____
ROOT
ATOM      1  C   UNL     1       7.251  -1.862  22.738  0.00  0.00    +0.000 A 
ATOM      2  C   UNL     1       8.474  -1.785  22.186  0.00  0.00    +0.000 A 
ATOM      3  C   UNL     1       9.193  -0.527  22.233  0.00  0.00    +0.000 A 
ATOM      4  O   UNL     1      10.404  -0.475  22.066  0.00  0.00    +0.000 OA
ATOM      5  C   UNL     1       8.375   0.660  22.402  0.00  0.00    +0.000 A 
ATOM      6  C   UNL     1       8.888   1.897  22.010  0.00  0.00    +0.000 A 
ATOM      7  C   UNL     1       8.049   2.993  21.948  0.00  0.00    +0.000 A 
ATOM      8  C   UNL     1       6.717   2.842  22.325  0.00  0.00    +0.000 A 
ATOM      9  C   UNL     1       6.211   1.618  22.790  0.00  0.00    +0.000 A 
ATOM     10  C   UNL     1       7.046   0.501  22.806  0.00  0.00    +0.000 A 
ATOM     11  O   UNL     1       6.533  -0.740  23.164  0.00  0.00    +0.000 OA
ENDROOT
BRANCH   1  15
ATOM     12  C   UNL     1       5.447  -5.705  23.436  0.00  0.00    +0.000 A 
ATOM     13  C   UNL     1       4.749  -4.535  23.672  0.00  0.00    +0.000 A 
ATOM     14  C   UNL     1       5.305  -3.311  23.325  0.00  0.00    +0.000 A 
ATOM     15  C   UNL     1       6.620  -3.206  22.818  0.00  0.00    +0.000 A 
ATOM     16  C   UNL     1       7.276  -4.392  22.490  0.00  0.00    +0.000 A 
ATOM     17  C   UNL     1       6.696  -5.641  22.803  0.00  0.00    +0.000 A 
BRANCH  12  19
ATOM     18  C   UNL     1       4.516  -6.855  25.283  0.00  0.00    +0.000 C 
ATOM     19  O   UNL     1       4.817  -6.822  23.899  0.00  0.00    +0.000 OA
ENDBRANCH  12  19
ENDBRANCH   1  15
BRANCH   8  20
ATOM     20  O   UNL     1       5.854   3.896  22.217  0.00  0.00    +0.000 OA
ATOM     21  H   UNL     1       5.523   3.927  21.302  0.00  0.00    +0.000 HD
ENDBRANCH   8  20
BRANCH   6  22
ATOM     22  O   UNL     1      10.190   2.071  21.622  0.00  0.00    +0.000 OA
ATOM     23  H   UNL     1      10.727   1.332  21.987  0.00  0.00    +0.000 HD
ENDBRANCH   6  22
TORSDOF 4
ENDMDL
MODEL 9
REMARK VINA RESULT:      -6.5      2.825      4.038
REMARK  Name = 
REMARK  5 active torsions:
REMARK  status: ('A' for Active; 'I' for Inactive)
REMARK    1  A    between atoms: C_1  and  O_2
REMARK    2  A    between atoms: O_2  and  C_3
REMARK    3  A    between atoms: C_6  and  C_9
REMARK    4  A    between atoms: C_14  and  O_21
REMARK    5  A    between atoms: C_16  and  O_20
REMARK                            x       y       z     vdW  Elec       q    Type
REMARK                         _______ _______ _______ _____ _____    ______ ____
ROOT
ATOM      1  C   UNL     1       8.521  -0.425  24.844  0.00  0.00    +0.000 A 
ATOM      2  C   UNL     1       9.630  -0.989  24.334  0.00  0.00    +0.000 A 
ATOM      3  C   UNL     1       9.693  -2.431  24.204  0.00  0.00    +0.000 A 
ATOM      4  O   UNL     1      10.498  -2.972  23.457  0.00  0.00    +0.000 OA
ATOM      5  C   UNL     1       8.807  -3.182  25.075  0.00  0.00    +0.000 A 
ATOM      6  C   UNL     1       9.105  -4.516  25.355  0.00  0.00    +0.000 A 
ATOM      7  C   UNL     1       8.411  -5.173  26.353  0.00  0.00    +0.000 A 
ATOM      8  C   UNL     1       7.396  -4.495  27.024  0.00  0.00    +0.000 A 
ATOM      9  C   UNL     1       7.043  -3.176  26.698  0.00  0.00    +0.000 A 
ATOM     10  C   UNL     1       7.775  -2.498  25.724  0.00  0.00    +0.000 A 
ATOM     11  O   UNL     1       7.506  -1.160  25.463  0.00  0.00    +0.000 OA
ENDROOT
BRANCH   1  15
ATOM     12  C   UNL     1       8.680   3.873  24.931  0.00  0.00    +0.000 A 
ATOM     13  C   UNL     1       9.453   3.149  24.044  0.00  0.00    +0.000 A 
ATOM     14  C   UNL     1       9.297   1.771  23.948  0.00  0.00    +0.000 A 
ATOM     15  C   UNL     1       8.429   1.059  24.805  0.00  0.00    +0.000 A 
ATOM     16  C   UNL     1       7.583   1.805  25.625  0.00  0.00    +0.000 A 
ATOM     17  C   UNL     1       7.710   3.211  25.694  0.00  0.00    +0.000 A 
BRANCH  12  19
ATOM     18  C   UNL     1       9.593   5.751  23.815  0.00  0.00    +0.000 C 
ATOM     19  O   UNL     1       8.996   5.199  24.976  0.00  0.00    +0.000 OA
ENDBRANCH  12  19
ENDBRANCH   1  15
BRANCH   8  20
ATOM     20  O   UNL     1       6.735  -5.103  28.054  0.00  0.00    +0.000 OA
ATOM     21  H   UNL     1       7.159  -5.962  28.224  0.00  0.00    +0.000 HD
ENDBRANCH   8  20
BRANCH   6  22
ATOM     22  O   UNL     1      10.105  -5.202  24.720  0.00  0.00    +0.000 OA
ATOM     23  H   UNL     1      10.133  -4.916  23.779  0.00  0.00    +0.000 HD
ENDBRANCH   6  22
TORSDOF 4
ENDMDL
