MODEL 1
REMARK VINA RESULT:      -4.8      0.000      0.000
REMARK  Name = 
REMARK  4 active torsions:
REMARK  status: ('A' for Active; 'I' for Inactive)
REMARK    1  A    between atoms: C_1  and  O_2
REMARK    2  A    between atoms: O_2  and  C_3
REMARK    3  A    between atoms: C_4  and  O_11
REMARK    4  A    between atoms: C_7  and  C_9
REMARK                            x       y       z     vdW  Elec       q    Type
REMARK                         _______ _______ _______ _____ _____    ______ ____
ROOT
ATOM      1  C   UNL     1       9.846   1.028  23.620  0.00  0.00    +0.000 A 
ATOM      2  C   UNL     1       9.844   0.986  22.218  0.00  0.00    +0.000 A 
ATOM      3  C   UNL     1       9.690  -0.209  21.521  0.00  0.00    +0.000 A 
ATOM      4  C   UNL     1       9.534  -1.399  22.231  0.00  0.00    +0.000 A 
ATOM      5  C   UNL     1       9.536  -1.369  23.630  0.00  0.00    +0.000 A 
ATOM      6  C   UNL     1       9.692  -0.163  24.326  0.00  0.00    +0.000 A 
ENDROOT
BRANCH   1   8
ATOM      7  C   UNL     1       8.832   2.870  24.720  0.00  0.00    +0.000 C 
ATOM      8  O   UNL     1      10.003   2.275  24.167  0.00  0.00    +0.000 OA
ENDBRANCH   1   8
BRANCH   5   9
ATOM      9  C   UNL     1       9.372  -2.632  24.381  0.00  0.00    +0.000 C 
ATOM     10  O   UNL     1      10.089  -3.603  24.176  0.00  0.00    +0.000 OA
ENDBRANCH   5   9
BRANCH   2  11
ATOM     11  O   UNL     1       9.996   2.136  21.495  0.00  0.00    +0.000 OA
ATOM     12  H   UNL     1       9.260   2.714  21.777  0.00  0.00    +0.000 HD
ENDBRANCH   2  11
TORSDOF 3
ENDMDL
MODEL 2
REMARK VINA RESULT:      -4.4      4.064      6.398
REMARK  Name = 
REMARK  4 active torsions:
REMARK  status: ('A' for Active; 'I' for Inactive)
REMARK    1  A    between atoms: C_1  and  O_2
REMARK    2  A    between atoms: O_2  and  C_3
REMARK    3  A    between atoms: C_4  and  O_11
REMARK    4  A    between atoms: C_7  and  C_9
REMARK                            x       y       z     vdW  Elec       q    Type
REMARK                         _______ _______ _______ _____ _____    ______ ____
ROOT
ATOM      1  C   UNL     1       8.538  -4.591  24.695  0.00  0.00    +0.000 A 
ATOM      2  C   UNL     1       8.254  -4.951  26.021  0.00  0.00    +0.000 A 
ATOM      3  C   UNL     1       7.015  -5.466  26.390  0.00  0.00    +0.000 A 
ATOM      4  C   UNL     1       6.026  -5.628  25.421  0.00  0.00    +0.000 A 
ATOM      5  C   UNL     1       6.298  -5.271  24.096  0.00  0.00    +0.000 A 
ATOM      6  C   UNL     1       7.547  -4.753  23.730  0.00  0.00    +0.000 A 
ENDROOT
BRANCH   1   8
ATOM      7  C   UNL     1       9.885  -2.767  23.992  0.00  0.00    +0.000 C 
ATOM      8  O   UNL     1       9.801  -4.104  24.480  0.00  0.00    +0.000 OA
ENDBRANCH   1   8
BRANCH   5   9
ATOM      9  C   UNL     1       5.248  -5.443  23.070  0.00  0.00    +0.000 C 
ATOM     10  O   UNL     1       4.649  -4.488  22.592  0.00  0.00    +0.000 OA
ENDBRANCH   5   9
BRANCH   2  11
ATOM     11  O   UNL     1       9.204  -4.802  26.993  0.00  0.00    +0.000 OA
ATOM     12  H   UNL     1       9.802  -4.105  26.662  0.00  0.00    +0.000 HD
ENDBRANCH   2  11
TORSDOF 3
ENDMDL
MODEL 3
REMARK VINA RESULT:      -4.4      1.622      3.987
REMARK  Name = 
REMARK  4 active torsions:
REMARK  status: ('A' for Active; 'I' for Inactive)
REMARK    1  A    between atoms: C_1  and  O_2
REMARK    2  A    between atoms: O_2  and  C_3
REMARK    3  A    between atoms: C_4  and  O_11
REMARK    4  A    between atoms: C_7  and  C_9
REMARK                            x       y       z     vdW  Elec       q    Type
REMARK                         _______ _______ _______ _____ _____    ______ ____
ROOT
ATOM      1  C   UNL     1       9.860  -0.456  23.686  0.00  0.00    +0.000 A 
ATOM      2  C   UNL     1       9.473  -0.654  22.353  0.00  0.00    +0.000 A 
ATOM      3  C   UNL     1       9.437   0.394  21.438  0.00  0.00    +0.000 A 
ATOM      4  C   UNL     1       9.791   1.677  21.853  0.00  0.00    +0.000 A 
ATOM      5  C   UNL     1      10.178   1.886  23.181  0.00  0.00    +0.000 A 
ATOM      6  C   UNL     1      10.212   0.828  24.098  0.00  0.00    +0.000 A 
ENDROOT
BRANCH   1   8
ATOM      7  C   UNL     1       8.792  -1.681  25.416  0.00  0.00    +0.000 C 
ATOM      8  O   UNL     1       9.852  -1.580  24.470  0.00  0.00    +0.000 OA
ENDBRANCH   1   8
BRANCH   5   9
ATOM      9  C   UNL     1      10.552   3.247  23.620  0.00  0.00    +0.000 C 
ATOM     10  O   UNL     1      11.619   3.758  23.301  0.00  0.00    +0.000 OA
ENDBRANCH   5   9
BRANCH   2  11
ATOM     11  O   UNL     1       9.118  -1.900  21.917  0.00  0.00    +0.000 OA
ATOM     12  H   UNL     1       9.944  -2.423  21.938  0.00  0.00    +0.000 HD
ENDBRANCH   2  11
TORSDOF 3
ENDMDL
MODEL 4
REMARK VINA RESULT:      -4.2      5.192      6.688
REMARK  Name = 
REMARK  4 active torsions:
REMARK  status: ('A' for Active; 'I' for Inactive)
REMARK    1  A    between atoms: C_1  and  O_2
REMARK    2  A    between atoms: O_2  and  C_3
REMARK    3  A    between atoms: C_4  and  O_11
REMARK    4  A    between atoms: C_7  and  C_9
REMARK                            x       y       z     vdW  Elec       q    Type
REMARK                         _______ _______ _______ _____ _____    ______ ____
ROOT
ATOM      1  C   UNL     1       7.668  -4.791  24.265  0.00  0.00    +0.000 A 
ATOM      2  C   UNL     1       8.810  -4.482  25.019  0.00  0.00    +0.000 A 
ATOM      3  C   UNL     1       8.858  -4.693  26.393  0.00  0.00    +0.000 A 
ATOM      4  C   UNL     1       7.745  -5.222  27.044  0.00  0.00    +0.000 A 
ATOM      5  C   UNL     1       6.600  -5.533  26.302  0.00  0.00    +0.000 A 
ATOM      6  C   UNL     1       6.557  -5.319  24.918  0.00  0.00    +0.000 A 
ENDROOT
BRANCH   1   8
ATOM      7  C   UNL     1       7.210  -5.516  22.052  0.00  0.00    +0.000 C 
ATOM      8  O   UNL     1       7.768  -4.535  22.922  0.00  0.00    +0.000 OA
ENDBRANCH   1   8
BRANCH   5   9
ATOM      9  C   UNL     1       5.419  -6.093  26.993  0.00  0.00    +0.000 C 
ATOM     10  O   UNL     1       5.473  -7.150  27.609  0.00  0.00    +0.000 OA
ENDBRANCH   5   9
BRANCH   2  11
ATOM     11  O   UNL     1       9.917  -3.961  24.410  0.00  0.00    +0.000 OA
ATOM     12  H   UNL     1       9.584  -3.532  23.597  0.00  0.00    +0.000 HD
ENDBRANCH   2  11
TORSDOF 3
ENDMDL
MODEL 5
REMARK VINA RESULT:      -4.1      1.472      2.170
REMARK  Name = 
REMARK  4 active torsions:
REMARK  status: ('A' for Active; 'I' for Inactive)
REMARK    1  A    between atoms: C_1  and  O_2
REMARK    2  A    between atoms: O_2  and  C_3
REMARK    3  A    between atoms: C_4  and  O_11
REMARK    4  A    between atoms: C_7  and  C_9
REMARK                            x       y       z     vdW  Elec       q    Type
REMARK                         _______ _______ _______ _____ _____    ______ ____
ROOT
ATOM      1  C   UNL     1       9.049   1.416  22.480  0.00  0.00    +0.000 A 
ATOM      2  C   UNL     1      10.054   2.050  23.226  0.00  0.00    +0.000 A 
ATOM      3  C   UNL     1      10.819   1.358  24.161  0.00  0.00    +0.000 A 
ATOM      4  C   UNL     1      10.582  -0.000  24.366  0.00  0.00    +0.000 A 
ATOM      5  C   UNL     1       9.582  -0.642  23.629  0.00  0.00    +0.000 A 
ATOM      6  C   UNL     1       8.815   0.059  22.689  0.00  0.00    +0.000 A 
ENDROOT
BRANCH   1   8
ATOM      7  C   UNL     1       7.073   2.632  21.979  0.00  0.00    +0.000 C 
ATOM      8  O   UNL     1       8.383   2.222  21.594  0.00  0.00    +0.000 OA
ENDBRANCH   1   8
BRANCH   5   9
ATOM      9  C   UNL     1       9.332  -2.083  23.849  0.00  0.00    +0.000 C 
ATOM     10  O   UNL     1      10.235  -2.909  23.808  0.00  0.00    +0.000 OA
ENDBRANCH   5   9
BRANCH   2  11
ATOM     11  O   UNL     1      10.308   3.381  23.047  0.00  0.00    +0.000 OA
ATOM     12  H   UNL     1       9.464   3.832  23.245  0.00  0.00    +0.000 HD
ENDBRANCH   2  11
TORSDOF 3
ENDMDL
MODEL 6
REMARK VINA RESULT:      -4.1      2.382      2.429
REMARK  Name = 
REMARK  4 active torsions:
REMARK  status: ('A' for Active; 'I' for Inactive)
REMARK    1  A    between atoms: C_1  and  O_2
REMARK    2  A    between atoms: O_2  and  C_3
REMARK    3  A    between atoms: C_4  and  O_11
REMARK    4  A    between atoms: C_7  and  C_9
REMARK                            x       y       z     vdW  Elec       q    Type
REMARK                         _______ _______ _______ _____ _____    ______ ____
ROOT
ATOM      1  C   UNL     1       8.148   1.493  22.613  0.00  0.00    +0.000 A 
ATOM      2  C   UNL     1       9.333   1.189  21.927  0.00  0.00    +0.000 A 
ATOM      3  C   UNL     1       9.694  -0.123  21.636  0.00  0.00    +0.000 A 
ATOM      4  C   UNL     1       8.861  -1.166  22.038  0.00  0.00    +0.000 A 
ATOM      5  C   UNL     1       7.678  -0.874  22.725  0.00  0.00    +0.000 A 
ATOM      6  C   UNL     1       7.319   0.448  23.015  0.00  0.00    +0.000 A 
ENDROOT
BRANCH   1   8
ATOM      7  C   UNL     1       6.837   3.404  22.100  0.00  0.00    +0.000 C 
ATOM      8  O   UNL     1       7.921   2.829  22.824  0.00  0.00    +0.000 OA
ENDBRANCH   1   8
BRANCH   5   9
ATOM      9  C   UNL     1       6.796  -1.982  23.151  0.00  0.00    +0.000 C 
ATOM     10  O   UNL     1       5.968  -2.476  22.397  0.00  0.00    +0.000 OA
ENDBRANCH   5   9
BRANCH   2  11
ATOM     11  O   UNL     1      10.170   2.191  21.521  0.00  0.00    +0.000 OA
ATOM     12  H   UNL     1      10.827   1.756  20.942  0.00  0.00    +0.000 HD
ENDBRANCH   2  11
TORSDOF 3
ENDMDL
MODEL 7
REMARK VINA RESULT:      -4.1      2.643      4.562
REMARK  Name = 
REMARK  4 active torsions:
REMARK  status: ('A' for Active; 'I' for Inactive)
REMARK    1  A    between atoms: C_1  and  O_2
REMARK    2  A    between atoms: O_2  and  C_3
REMARK    3  A    between atoms: C_4  and  O_11
REMARK    4  A    between atoms: C_7  and  C_9
REMARK                            x       y       z     vdW  Elec       q    Type
REMARK                         _______ _______ _______ _____ _____    ______ ____
ROOT
ATOM      1  C   UNL     1       8.133  -1.124  22.623  0.00  0.00    +0.000 A 
ATOM      2  C   UNL     1       9.217  -0.676  21.854  0.00  0.00    +0.000 A 
ATOM      3  C   UNL     1       9.355   0.660  21.493  0.00  0.00    +0.000 A 
ATOM      4  C   UNL     1       8.392   1.582  21.903  0.00  0.00    +0.000 A 
ATOM      5  C   UNL     1       7.307   1.146  22.670  0.00  0.00    +0.000 A 
ATOM      6  C   UNL     1       7.173  -0.201  23.030  0.00  0.00    +0.000 A 
ENDROOT
BRANCH   1   8
ATOM      7  C   UNL     1       7.126  -3.243  22.264  0.00  0.00    +0.000 C 
ATOM      8  O   UNL     1       8.132  -2.466  22.906  0.00  0.00    +0.000 OA
ENDBRANCH   1   8
BRANCH   5   9
ATOM      9  C   UNL     1       6.287   2.125  23.103  0.00  0.00    +0.000 C 
ATOM     10  O   UNL     1       5.727   2.868  22.308  0.00  0.00    +0.000 OA
ENDBRANCH   5   9
BRANCH   2  11
ATOM     11  O   UNL     1      10.176  -1.557  21.436  0.00  0.00    +0.000 OA
ATOM     12  H   UNL     1      10.700  -1.761  22.235  0.00  0.00    +0.000 HD
ENDBRANCH   2  11
TORSDOF 3
ENDMDL
MODEL 8
REMARK VINA RESULT:      -4.1      5.131      7.063
REMARK  Name = 
REMARK  4 active torsions:
REMARK  status: ('A' for Active; 'I' for Inactive)
REMARK    1  A    between atoms: C_1  and  O_2
REMARK    2  A    between atoms: O_2  and  C_3
REMARK    3  A    between atoms: C_4  and  O_11
REMARK    4  A    between atoms: C_7  and  C_9
REMARK                            x       y       z     vdW  Elec       q    Type
REMARK                         _______ _______ _______ _____ _____    ______ ____
ROOT
ATOM      1  C   UNL     1       6.504  -5.456  25.373  0.00  0.00    +0.000 A 
ATOM      2  C   UNL     1       7.858  -5.275  25.687  0.00  0.00    +0.000 A 
ATOM      3  C   UNL     1       8.678  -4.435  24.939  0.00  0.00    +0.000 A 
ATOM      4  C   UNL     1       8.143  -3.754  23.846  0.00  0.00    +0.000 A 
ATOM      5  C   UNL     1       6.793  -3.928  23.523  0.00  0.00    +0.000 A 
ATOM      6  C   UNL     1       5.973  -4.775  24.279  0.00  0.00    +0.000 A 
ENDROOT
BRANCH   1   8
ATOM      7  C   UNL     1       4.627  -6.879  25.670  0.00  0.00    +0.000 C 
ATOM      8  O   UNL     1       5.820  -6.308  26.201  0.00  0.00    +0.000 OA
ENDBRANCH   1   8
BRANCH   5   9
ATOM      9  C   UNL     1       6.228  -3.206  22.363  0.00  0.00    +0.000 C 
ATOM     10  O   UNL     1       5.295  -3.658  21.713  0.00  0.00    +0.000 OA
ENDBRANCH   5   9
BRANCH   2  11
ATOM     11  O   UNL     1       8.411  -5.930  26.752  0.00  0.00    +0.000 OA
ATOM     12  H   UNL     1       9.348  -6.069  26.509  0.00  0.00    +0.000 HD
ENDBRANCH   2  11
TORSDOF 3
ENDMDL
MODEL 9
REMARK VINA RESULT:      -4.0      1.815      3.217
REMARK  Name = 
REMARK  4 active torsions:
REMARK  status: ('A' for Active; 'I' for Inactive)
REMARK    1  A    between atoms: C_1  and  O_2
REMARK    2  A    between atoms: O_2  and  C_3
REMARK    3  A    between atoms: C_4  and  O_11
REMARK    4  A    between atoms: C_7  and  C_9
REMARK                            x       y       z     vdW  Elec       q    Type
REMARK                         _______ _______ _______ _____ _____    ______ ____
ROOT
ATOM      1  C   UNL     1       9.873  -0.977  24.049  0.00  0.00    +0.000 A 
ATOM      2  C   UNL     1       9.355  -0.355  25.194  0.00  0.00    +0.000 A 
ATOM      3  C   UNL     1       8.704  -1.078  26.189  0.00  0.00    +0.000 A 
ATOM      4  C   UNL     1       8.559  -2.457  26.048  0.00  0.00    +0.000 A 
ATOM      5  C   UNL     1       9.072  -3.089  24.909  0.00  0.00    +0.000 A 
ATOM      6  C   UNL     1       9.726  -2.356  23.911  0.00  0.00    +0.000 A 
ENDROOT
BRANCH   1   8
ATOM      7  C   UNL     1       9.793   0.113  21.942  0.00  0.00    +0.000 C 
ATOM      8  O   UNL     1      10.492  -0.140  23.158  0.00  0.00    +0.000 OA
ENDBRANCH   1   8
BRANCH   5   9
ATOM      9  C   UNL     1       8.916  -4.551  24.761  0.00  0.00    +0.000 C 
ATOM     10  O   UNL     1       8.455  -5.052  23.744  0.00  0.00    +0.000 OA
ENDBRANCH   5   9
BRANCH   2  11
ATOM     11  O   UNL     1       9.480   0.996  25.360  0.00  0.00    +0.000 OA
ATOM     12  H   UNL     1      10.062   1.290  24.632  0.00  0.00    +0.000 HD
ENDBRANCH   2  11
TORSDOF 3
ENDMDL
