MODEL 1
REMARK VINA RESULT:      -6.7      0.000      0.000
REMARK  Name = 
REMARK  12 active torsions:
REMARK  status: ('A' for Active; 'I' for Inactive)
REMARK    1  A    between atoms: C_3  and  O_26
REMARK    2  A    between atoms: C_4  and  O_25
REMARK    3  A    between atoms: C_6  and  C_7
REMARK    4  A    between atoms: C_7  and  C_8
REMARK    5  A    between atoms: C_8  and  C_9
REMARK    6  A    between atoms: C_8  and  O_12
REMARK    7  A    between atoms: C_9  and  O_11
REMARK    8  A    between atoms: O_12  and  C_13
REMARK    9  A    between atoms: C_13  and  C_15
REMARK   10  A    between atoms: C_16  and  C_17
REMARK   11  A    between atoms: C_19  and  O_24
REMARK   12  A    between atoms: C_20  and  O_23
REMARK                            x       y       z     vdW  Elec       q    Type
REMARK                         _______ _______ _______ _____ _____    ______ ____
ROOT
ATOM      1  C   UNL     1       7.082  -4.137  26.257  0.00  0.00    +0.000 C 
ENDROOT
BRANCH   1   2
ATOM      2  C   UNL     1       6.960  -5.032  27.491  0.00  0.00    +0.000 C 
ATOM      3  O   UNL     1       6.173  -4.857  28.410  0.00  0.00    +0.000 OA
BRANCH   2   4
ATOM      4  O   UNL     1       7.894  -6.017  27.523  0.00  0.00    +0.000 OA
ATOM      5  H   UNL     1       8.766  -5.661  27.790  0.00  0.00    +0.000 HD
ENDBRANCH   2   4
ENDBRANCH   1   2
BRANCH   1   6
ATOM      6  O   UNL     1       7.265  -4.936  25.068  0.00  0.00    +0.000 OA
BRANCH   6   7
ATOM      7  C   UNL     1       8.514  -4.867  24.533  0.00  0.00    +0.000 C 
ATOM      8  O   UNL     1       9.405  -5.682  24.692  0.00  0.00    +0.000 OA
BRANCH   7   9
ATOM      9  C   UNL     1       8.622  -3.640  23.720  0.00  0.00    +0.000 C 
ATOM     10  C   UNL     1       9.460  -2.664  24.109  0.00  0.00    +0.000 C 
BRANCH  10  11
ATOM     11  C   UNL     1       9.654  -1.391  23.395  0.00  0.00    +0.000 A 
ATOM     12  C   UNL     1      10.259  -0.320  24.077  0.00  0.00    +0.000 A 
ATOM     13  C   UNL     1      10.421   0.905  23.435  0.00  0.00    +0.000 A 
ATOM     14  C   UNL     1       9.976   1.078  22.127  0.00  0.00    +0.000 A 
ATOM     15  C   UNL     1       9.362   0.044  21.447  0.00  0.00    +0.000 A 
ATOM     16  C   UNL     1       9.196  -1.192  22.082  0.00  0.00    +0.000 A 
BRANCH  13  17
ATOM     17  O   UNL     1      11.010   1.974  24.050  0.00  0.00    +0.000 OA
ATOM     18  H   UNL     1      10.581   2.108  24.912  0.00  0.00    +0.000 HD
ENDBRANCH  13  17
BRANCH  14  19
ATOM     19  O   UNL     1      10.136   2.284  21.507  0.00  0.00    +0.000 OA
ATOM     20  H   UNL     1      11.078   2.305  21.245  0.00  0.00    +0.000 HD
ENDBRANCH  14  19
ENDBRANCH  10  11
ENDBRANCH   7   9
ENDBRANCH   6   7
ENDBRANCH   1   6
BRANCH   1  21
ATOM     21  C   UNL     1       5.902  -3.162  26.130  0.00  0.00    +0.000 C 
BRANCH  21  27
ATOM     22  C   UNL     1       6.920  -0.925  26.751  0.00  0.00    +0.000 A 
ATOM     23  C   UNL     1       7.346   0.367  26.428  0.00  0.00    +0.000 A 
ATOM     24  C   UNL     1       7.088   0.866  25.157  0.00  0.00    +0.000 A 
ATOM     25  C   UNL     1       6.388   0.095  24.232  0.00  0.00    +0.000 A 
ATOM     26  C   UNL     1       5.941  -1.180  24.554  0.00  0.00    +0.000 A 
ATOM     27  C   UNL     1       6.231  -1.718  25.817  0.00  0.00    +0.000 A 
BRANCH  25  28
ATOM     28  O   UNL     1       6.169   0.579  22.974  0.00  0.00    +0.000 OA
ATOM     29  H   UNL     1       6.273   1.548  23.065  0.00  0.00    +0.000 HD
ENDBRANCH  25  28
BRANCH  24  30
ATOM     30  O   UNL     1       7.522   2.101  24.763  0.00  0.00    +0.000 OA
ATOM     31  H   UNL     1       8.458   2.024  24.508  0.00  0.00    +0.000 HD
ENDBRANCH  24  30
ENDBRANCH  21  27
ENDBRANCH   1  21
TORSDOF 12
ENDMDL
MODEL 2
REMARK VINA RESULT:      -6.6      2.018      3.177
REMARK  Name = 
REMARK  12 active torsions:
REMARK  status: ('A' for Active; 'I' for Inactive)
REMARK    1  A    between atoms: C_3  and  O_26
REMARK    2  A    between atoms: C_4  and  O_25
REMARK    3  A    between atoms: C_6  and  C_7
REMARK    4  A    between atoms: C_7  and  C_8
REMARK    5  A    between atoms: C_8  and  C_9
REMARK    6  A    between atoms: C_8  and  O_12
REMARK    7  A    between atoms: C_9  and  O_11
REMARK    8  A    between atoms: O_12  and  C_13
REMARK    9  A    between atoms: C_13  and  C_15
REMARK   10  A    between atoms: C_16  and  C_17
REMARK   11  A    between atoms: C_19  and  O_24
REMARK   12  A    between atoms: C_20  and  O_23
REMARK                            x       y       z     vdW  Elec       q    Type
REMARK                         _______ _______ _______ _____ _____    ______ ____
ROOT
ATOM      1  C   UNL     1       6.896  -4.349  26.604  0.00  0.00    +0.000 C 
ENDROOT
BRANCH   1   2
ATOM      2  C   UNL     1       6.751  -5.210  27.860  0.00  0.00    +0.000 C 
ATOM      3  O   UNL     1       6.016  -4.958  28.803  0.00  0.00    +0.000 OA
BRANCH   2   4
ATOM      4  O   UNL     1       7.604  -6.265  27.877  0.00  0.00    +0.000 OA
ATOM      5  H   UNL     1       8.528  -5.965  27.999  0.00  0.00    +0.000 HD
ENDBRANCH   2   4
ENDBRANCH   1   2
BRANCH   1   6
ATOM      6  O   UNL     1       7.834  -4.948  25.684  0.00  0.00    +0.000 OA
BRANCH   6   7
ATOM      7  C   UNL     1       9.105  -4.473  25.793  0.00  0.00    +0.000 C 
ATOM      8  O   UNL     1      10.051  -5.067  26.278  0.00  0.00    +0.000 OA
BRANCH   7   9
ATOM      9  C   UNL     1       9.160  -3.111  25.224  0.00  0.00    +0.000 C 
ATOM     10  C   UNL     1       9.591  -2.941  23.963  0.00  0.00    +0.000 C 
BRANCH  10  11
ATOM     11  C   UNL     1       9.702  -1.640  23.283  0.00  0.00    +0.000 A 
ATOM     12  C   UNL     1      10.161  -0.532  24.018  0.00  0.00    +0.000 A 
ATOM     13  C   UNL     1      10.241   0.717  23.408  0.00  0.00    +0.000 A 
ATOM     14  C   UNL     1       9.856   0.877  22.079  0.00  0.00    +0.000 A 
ATOM     15  C   UNL     1       9.384  -0.196  21.347  0.00  0.00    +0.000 A 
ATOM     16  C   UNL     1       9.302  -1.456  21.950  0.00  0.00    +0.000 A 
BRANCH  13  17
ATOM     17  O   UNL     1      10.688   1.824  24.075  0.00  0.00    +0.000 OA
ATOM     18  H   UNL     1      10.246   1.861  24.941  0.00  0.00    +0.000 HD
ENDBRANCH  13  17
BRANCH  14  19
ATOM     19  O   UNL     1       9.935   2.106  21.491  0.00  0.00    +0.000 OA
ATOM     20  H   UNL     1      10.796   2.105  21.028  0.00  0.00    +0.000 HD
ENDBRANCH  14  19
ENDBRANCH  10  11
ENDBRANCH   7   9
ENDBRANCH   6   7
ENDBRANCH   1   6
BRANCH   1  21
ATOM     21  C   UNL     1       5.539  -4.054  25.946  0.00  0.00    +0.000 C 
BRANCH  21  27
ATOM     22  C   UNL     1       5.701  -2.828  23.733  0.00  0.00    +0.000 A 
ATOM     23  C   UNL     1       5.796  -2.812  22.337  0.00  0.00    +0.000 A 
ATOM     24  C   UNL     1       5.694  -4.007  21.639  0.00  0.00    +0.000 A 
ATOM     25  C   UNL     1       5.471  -5.200  22.322  0.00  0.00    +0.000 A 
ATOM     26  C   UNL     1       5.353  -5.222  23.706  0.00  0.00    +0.000 A 
ATOM     27  C   UNL     1       5.497  -4.030  24.433  0.00  0.00    +0.000 A 
BRANCH  25  28
ATOM     28  O   UNL     1       5.407  -6.376  21.631  0.00  0.00    +0.000 OA
ATOM     29  H   UNL     1       4.519  -6.367  21.219  0.00  0.00    +0.000 HD
ENDBRANCH  25  28
BRANCH  24  30
ATOM     30  O   UNL     1       5.828  -4.065  20.280  0.00  0.00    +0.000 OA
ATOM     31  H   UNL     1       5.014  -4.451  19.913  0.00  0.00    +0.000 HD
ENDBRANCH  24  30
ENDBRANCH  21  27
ENDBRANCH   1  21
TORSDOF 12
ENDMDL
MODEL 3
REMARK VINA RESULT:      -6.4      1.944      4.106
REMARK  Name = 
REMARK  12 active torsions:
REMARK  status: ('A' for Active; 'I' for Inactive)
REMARK    1  A    between atoms: C_3  and  O_26
REMARK    2  A    between atoms: C_4  and  O_25
REMARK    3  A    between atoms: C_6  and  C_7
REMARK    4  A    between atoms: C_7  and  C_8
REMARK    5  A    between atoms: C_8  and  C_9
REMARK    6  A    between atoms: C_8  and  O_12
REMARK    7  A    between atoms: C_9  and  O_11
REMARK    8  A    between atoms: O_12  and  C_13
REMARK    9  A    between atoms: C_13  and  C_15
REMARK   10  A    between atoms: C_16  and  C_17
REMARK   11  A    between atoms: C_19  and  O_24
REMARK   12  A    between atoms: C_20  and  O_23
REMARK                            x       y       z     vdW  Elec       q    Type
REMARK                         _______ _______ _______ _____ _____    ______ ____
ROOT
ATOM      1  C   UNL     1       8.048  -3.326  24.206  0.00  0.00    +0.000 C 
ENDROOT
BRANCH   1   2
ATOM      2  C   UNL     1       7.922  -4.804  24.576  0.00  0.00    +0.000 C 
ATOM      3  O   UNL     1       6.967  -5.304  25.153  0.00  0.00    +0.000 OA
BRANCH   2   4
ATOM      4  O   UNL     1       9.037  -5.519  24.281  0.00  0.00    +0.000 OA
ATOM      5  H   UNL     1       9.799  -5.211  24.812  0.00  0.00    +0.000 HD
ENDBRANCH   2   4
ENDBRANCH   1   2
BRANCH   1   6
ATOM      6  O   UNL     1       7.297  -2.507  25.129  0.00  0.00    +0.000 OA
BRANCH   6   7
ATOM      7  C   UNL     1       6.114  -2.050  24.637  0.00  0.00    +0.000 C 
ATOM      8  O   UNL     1       5.023  -2.561  24.813  0.00  0.00    +0.000 OA
BRANCH   7   9
ATOM      9  C   UNL     1       6.360  -0.826  23.849  0.00  0.00    +0.000 C 
ATOM     10  C   UNL     1       6.694   0.310  24.484  0.00  0.00    +0.000 C 
BRANCH  10  11
ATOM     11  C   UNL     1       6.956   1.597  23.819  0.00  0.00    +0.000 A 
ATOM     12  C   UNL     1       7.590   2.618  24.550  0.00  0.00    +0.000 A 
ATOM     13  C   UNL     1       7.817   3.856  23.954  0.00  0.00    +0.000 A 
ATOM     14  C   UNL     1       7.409   4.092  22.644  0.00  0.00    +0.000 A 
ATOM     15  C   UNL     1       6.768   3.108  21.916  0.00  0.00    +0.000 A 
ATOM     16  C   UNL     1       6.536   1.860  22.505  0.00  0.00    +0.000 A 
BRANCH  13  17
ATOM     17  O   UNL     1       8.437   4.878  24.618  0.00  0.00    +0.000 OA
ATOM     18  H   UNL     1       8.376   4.706  25.574  0.00  0.00    +0.000 HD
ENDBRANCH  13  17
BRANCH  14  19
ATOM     19  O   UNL     1       7.633   5.310  22.070  0.00  0.00    +0.000 OA
ATOM     20  H   UNL     1       6.863   5.454  21.486  0.00  0.00    +0.000 HD
ENDBRANCH  14  19
ENDBRANCH  10  11
ENDBRANCH   7   9
ENDBRANCH   6   7
ENDBRANCH   1   6
BRANCH   1  21
ATOM     21  C   UNL     1       9.514  -2.882  24.089  0.00  0.00    +0.000 C 
BRANCH  21  27
ATOM     22  C   UNL     1       9.377  -1.404  22.033  0.00  0.00    +0.000 A 
ATOM     23  C   UNL     1       9.502  -0.166  21.396  0.00  0.00    +0.000 A 
ATOM     24  C   UNL     1      10.029   0.908  22.101  0.00  0.00    +0.000 A 
ATOM     25  C   UNL     1      10.454   0.740  23.417  0.00  0.00    +0.000 A 
ATOM     26  C   UNL     1      10.356  -0.493  24.049  0.00  0.00    +0.000 A 
ATOM     27  C   UNL     1       9.785  -1.579  23.368  0.00  0.00    +0.000 A 
BRANCH  25  28
ATOM     28  O   UNL     1      10.939   1.808  24.115  0.00  0.00    +0.000 OA
ATOM     29  H   UNL     1      11.912   1.699  24.081  0.00  0.00    +0.000 HD
ENDBRANCH  25  28
BRANCH  24  30
ATOM     30  O   UNL     1      10.130   2.155  21.551  0.00  0.00    +0.000 OA
ATOM     31  H   UNL     1      10.659   2.707  22.153  0.00  0.00    +0.000 HD
ENDBRANCH  24  30
ENDBRANCH  21  27
ENDBRANCH   1  21
TORSDOF 12
ENDMDL
MODEL 4
REMARK VINA RESULT:      -6.1      1.002      1.557
REMARK  Name = 
REMARK  12 active torsions:
REMARK  status: ('A' for Active; 'I' for Inactive)
REMARK    1  A    between atoms: C_3  and  O_26
REMARK    2  A    between atoms: C_4  and  O_25
REMARK    3  A    between atoms: C_6  and  C_7
REMARK    4  A    between atoms: C_7  and  C_8
REMARK    5  A    between atoms: C_8  and  C_9
REMARK    6  A    between atoms: C_8  and  O_12
REMARK    7  A    between atoms: C_9  and  O_11
REMARK    8  A    between atoms: O_12  and  C_13
REMARK    9  A    between atoms: C_13  and  C_15
REMARK   10  A    between atoms: C_16  and  C_17
REMARK   11  A    between atoms: C_19  and  O_24
REMARK   12  A    between atoms: C_20  and  O_23
REMARK                            x       y       z     vdW  Elec       q    Type
REMARK                         _______ _______ _______ _____ _____    ______ ____
ROOT
ATOM      1  C   UNL     1       7.167  -4.196  25.684  0.00  0.00    +0.000 C 
ENDROOT
BRANCH   1   2
ATOM      2  C   UNL     1       7.591  -5.174  26.781  0.00  0.00    +0.000 C 
ATOM      3  O   UNL     1       7.092  -5.240  27.895  0.00  0.00    +0.000 OA
BRANCH   2   4
ATOM      4  O   UNL     1       8.665  -5.927  26.431  0.00  0.00    +0.000 OA
ATOM      5  H   UNL     1       9.352  -5.376  26.004  0.00  0.00    +0.000 HD
ENDBRANCH   2   4
ENDBRANCH   1   2
BRANCH   1   6
ATOM      6  O   UNL     1       6.829  -4.908  24.474  0.00  0.00    +0.000 OA
BRANCH   6   7
ATOM      7  C   UNL     1       7.609  -4.595  23.404  0.00  0.00    +0.000 C 
ATOM      8  O   UNL     1       7.665  -5.212  22.356  0.00  0.00    +0.000 OA
BRANCH   7   9
ATOM      9  C   UNL     1       8.383  -3.376  23.713  0.00  0.00    +0.000 C 
ATOM     10  C   UNL     1       8.237  -2.289  22.937  0.00  0.00    +0.000 C 
BRANCH  10  11
ATOM     11  C   UNL     1       8.955  -1.018  23.132  0.00  0.00    +0.000 A 
ATOM     12  C   UNL     1       8.749   0.021  22.206  0.00  0.00    +0.000 A 
ATOM     13  C   UNL     1       9.443   1.220  22.348  0.00  0.00    +0.000 A 
ATOM     14  C   UNL     1      10.348   1.390  23.393  0.00  0.00    +0.000 A 
ATOM     15  C   UNL     1      10.578   0.374  24.301  0.00  0.00    +0.000 A 
ATOM     16  C   UNL     1       9.884  -0.834  24.168  0.00  0.00    +0.000 A 
BRANCH  13  17
ATOM     17  O   UNL     1       9.274   2.264  21.481  0.00  0.00    +0.000 OA
ATOM     18  H   UNL     1       9.279   3.092  21.992  0.00  0.00    +0.000 HD
ENDBRANCH  13  17
BRANCH  14  19
ATOM     19  O   UNL     1      11.026   2.568  23.521  0.00  0.00    +0.000 OA
ATOM     20  H   UNL     1      11.678   2.403  24.230  0.00  0.00    +0.000 HD
ENDBRANCH  14  19
ENDBRANCH  10  11
ENDBRANCH   7   9
ENDBRANCH   6   7
ENDBRANCH   1   6
BRANCH   1  21
ATOM     21  C   UNL     1       6.040  -3.261  26.148  0.00  0.00    +0.000 C 
BRANCH  21  27
ATOM     22  C   UNL     1       7.278  -1.167  26.858  0.00  0.00    +0.000 A 
ATOM     23  C   UNL     1       7.617   0.180  26.691  0.00  0.00    +0.000 A 
ATOM     24  C   UNL     1       6.977   0.922  25.708  0.00  0.00    +0.000 A 
ATOM     25  C   UNL     1       5.989   0.336  24.921  0.00  0.00    +0.000 A 
ATOM     26  C   UNL     1       5.629  -0.994  25.096  0.00  0.00    +0.000 A 
ATOM     27  C   UNL     1       6.296  -1.773  26.054  0.00  0.00    +0.000 A 
BRANCH  25  28
ATOM     28  O   UNL     1       5.389   1.063  23.933  0.00  0.00    +0.000 OA
ATOM     29  H   UNL     1       4.448   0.794  23.972  0.00  0.00    +0.000 HD
ENDBRANCH  25  28
BRANCH  24  30
ATOM     30  O   UNL     1       7.299   2.228  25.462  0.00  0.00    +0.000 OA
ATOM     31  H   UNL     1       7.277   2.367  24.499  0.00  0.00    +0.000 HD
ENDBRANCH  24  30
ENDBRANCH  21  27
ENDBRANCH   1  21
TORSDOF 12
ENDMDL
MODEL 5
REMARK VINA RESULT:      -6.0      2.718      4.664
REMARK  Name = 
REMARK  12 active torsions:
REMARK  status: ('A' for Active; 'I' for Inactive)
REMARK    1  A    between atoms: C_3  and  O_26
REMARK    2  A    between atoms: C_4  and  O_25
REMARK    3  A    between atoms: C_6  and  C_7
REMARK    4  A    between atoms: C_7  and  C_8
REMARK    5  A    between atoms: C_8  and  C_9
REMARK    6  A    between atoms: C_8  and  O_12
REMARK    7  A    between atoms: C_9  and  O_11
REMARK    8  A    between atoms: O_12  and  C_13
REMARK    9  A    between atoms: C_13  and  C_15
REMARK   10  A    between atoms: C_16  and  C_17
REMARK   11  A    between atoms: C_19  and  O_24
REMARK   12  A    between atoms: C_20  and  O_23
REMARK                            x       y       z     vdW  Elec       q    Type
REMARK                         _______ _______ _______ _____ _____    ______ ____
ROOT
ATOM      1  C   UNL     1       7.297  -4.543  25.366  0.00  0.00    +0.000 C 
ENDROOT
BRANCH   1   2
ATOM      2  C   UNL     1       8.017  -5.268  26.504  0.00  0.00    +0.000 C 
ATOM      3  O   UNL     1       7.493  -5.636  27.546  0.00  0.00    +0.000 OA
BRANCH   2   4
ATOM      4  O   UNL     1       9.352  -5.392  26.291  0.00  0.00    +0.000 OA
ATOM      5  H   UNL     1       9.553  -6.222  25.813  0.00  0.00    +0.000 HD
ENDBRANCH   2   4
ENDBRANCH   1   2
BRANCH   1   6
ATOM      6  O   UNL     1       7.421  -5.286  24.134  0.00  0.00    +0.000 OA
BRANCH   6   7
ATOM      7  C   UNL     1       7.631  -4.514  23.033  0.00  0.00    +0.000 C 
ATOM      8  O   UNL     1       7.214  -4.741  21.912  0.00  0.00    +0.000 OA
BRANCH   7   9
ATOM      9  C   UNL     1       8.449  -3.345  23.414  0.00  0.00    +0.000 C 
ATOM     10  C   UNL     1       8.174  -2.145  22.876  0.00  0.00    +0.000 C 
BRANCH  10  11
ATOM     11  C   UNL     1       8.916  -0.907  23.164  0.00  0.00    +0.000 A 
ATOM     12  C   UNL     1       9.079   0.037  22.134  0.00  0.00    +0.000 A 
ATOM     13  C   UNL     1       9.808   1.200  22.372  0.00  0.00    +0.000 A 
ATOM     14  C   UNL     1      10.385   1.426  23.618  0.00  0.00    +0.000 A 
ATOM     15  C   UNL     1      10.252   0.502  24.637  0.00  0.00    +0.000 A 
ATOM     16  C   UNL     1       9.520  -0.669  24.409  0.00  0.00    +0.000 A 
BRANCH  13  17
ATOM     17  O   UNL     1       9.989   2.152  21.408  0.00  0.00    +0.000 OA
ATOM     18  H   UNL     1      10.546   1.776  20.704  0.00  0.00    +0.000 HD
ENDBRANCH  13  17
BRANCH  14  19
ATOM     19  O   UNL     1      11.101   2.568  23.840  0.00  0.00    +0.000 OA
ATOM     20  H   UNL     1      10.550   3.089  24.457  0.00  0.00    +0.000 HD
ENDBRANCH  14  19
ENDBRANCH  10  11
ENDBRANCH   7   9
ENDBRANCH   6   7
ENDBRANCH   1   6
BRANCH   1  21
ATOM     21  C   UNL     1       5.835  -4.229  25.715  0.00  0.00    +0.000 C 
BRANCH  21  27
ATOM     22  C   UNL     1       4.156  -4.613  23.855  0.00  0.00    +0.000 A 
ATOM     23  C   UNL     1       3.267  -5.428  23.147  0.00  0.00    +0.000 A 
ATOM     24  C   UNL     1       2.996  -6.704  23.620  0.00  0.00    +0.000 A 
ATOM     25  C   UNL     1       3.583  -7.152  24.801  0.00  0.00    +0.000 A 
ATOM     26  C   UNL     1       4.449  -6.340  25.524  0.00  0.00    +0.000 A 
ATOM     27  C   UNL     1       4.769  -5.063  25.038  0.00  0.00    +0.000 A 
BRANCH  25  28
ATOM     28  O   UNL     1       3.339  -8.421  25.242  0.00  0.00    +0.000 OA
ATOM     29  H   UNL     1       4.223  -8.839  25.279  0.00  0.00    +0.000 HD
ENDBRANCH  25  28
BRANCH  24  30
ATOM     30  O   UNL     1       2.176  -7.567  22.947  0.00  0.00    +0.000 OA
ATOM     31  H   UNL     1       1.290  -7.511  23.344  0.00  0.00    +0.000 HD
ENDBRANCH  24  30
ENDBRANCH  21  27
ENDBRANCH   1  21
TORSDOF 12
ENDMDL
MODEL 6
REMARK VINA RESULT:      -6.0      1.534      2.013
REMARK  Name = 
REMARK  12 active torsions:
REMARK  status: ('A' for Active; 'I' for Inactive)
REMARK    1  A    between atoms: C_3  and  O_26
REMARK    2  A    between atoms: C_4  and  O_25
REMARK    3  A    between atoms: C_6  and  C_7
REMARK    4  A    between atoms: C_7  and  C_8
REMARK    5  A    between atoms: C_8  and  C_9
REMARK    6  A    between atoms: C_8  and  O_12
REMARK    7  A    between atoms: C_9  and  O_11
REMARK    8  A    between atoms: O_12  and  C_13
REMARK    9  A    between atoms: C_13  and  C_15
REMARK   10  A    between atoms: C_16  and  C_17
REMARK   11  A    between atoms: C_19  and  O_24
REMARK   12  A    between atoms: C_20  and  O_23
REMARK                            x       y       z     vdW  Elec       q    Type
REMARK                         _______ _______ _______ _____ _____    ______ ____
ROOT
ATOM      1  C   UNL     1       6.767  -4.478  25.332  0.00  0.00    +0.000 C 
ENDROOT
BRANCH   1   2
ATOM      2  C   UNL     1       6.943  -5.611  26.344  0.00  0.00    +0.000 C 
ATOM      3  O   UNL     1       6.046  -6.335  26.751  0.00  0.00    +0.000 OA
BRANCH   2   4
ATOM      4  O   UNL     1       8.206  -5.687  26.837  0.00  0.00    +0.000 OA
ATOM      5  H   UNL     1       8.641  -6.516  26.552  0.00  0.00    +0.000 HD
ENDBRANCH   2   4
ENDBRANCH   1   2
BRANCH   1   6
ATOM      6  O   UNL     1       6.414  -5.008  24.036  0.00  0.00    +0.000 OA
BRANCH   6   7
ATOM      7  C   UNL     1       7.340  -4.778  23.066  0.00  0.00    +0.000 C 
ATOM      8  O   UNL     1       7.535  -5.473  22.085  0.00  0.00    +0.000 OA
BRANCH   7   9
ATOM      9  C   UNL     1       8.078  -3.541  23.389  0.00  0.00    +0.000 C 
ATOM     10  C   UNL     1       8.215  -2.591  22.448  0.00  0.00    +0.000 C 
BRANCH  10  11
ATOM     11  C   UNL     1       8.933  -1.320  22.639  0.00  0.00    +0.000 A 
ATOM     12  C   UNL     1       9.482  -1.038  23.903  0.00  0.00    +0.000 A 
ATOM     13  C   UNL     1      10.134   0.173  24.120  0.00  0.00    +0.000 A 
ATOM     14  C   UNL     1      10.235   1.111  23.095  0.00  0.00    +0.000 A 
ATOM     15  C   UNL     1       9.685   0.860  21.852  0.00  0.00    +0.000 A 
ATOM     16  C   UNL     1       9.029  -0.354  21.624  0.00  0.00    +0.000 A 
BRANCH  13  17
ATOM     17  O   UNL     1      10.692   0.492  25.326  0.00  0.00    +0.000 OA
ATOM     18  H   UNL     1      11.574   0.870  25.167  0.00  0.00    +0.000 HD
ENDBRANCH  13  17
BRANCH  14  19
ATOM     19  O   UNL     1      10.873   2.296  23.318  0.00  0.00    +0.000 OA
ATOM     20  H   UNL     1      10.447   2.927  22.704  0.00  0.00    +0.000 HD
ENDBRANCH  14  19
ENDBRANCH  10  11
ENDBRANCH   7   9
ENDBRANCH   6   7
ENDBRANCH   1   6
BRANCH   1  21
ATOM     21  C   UNL     1       5.771  -3.416  25.821  0.00  0.00    +0.000 C 
BRANCH  21  27
ATOM     22  C   UNL     1       5.552  -0.900  25.596  0.00  0.00    +0.000 A 
ATOM     23  C   UNL     1       5.966   0.404  25.889  0.00  0.00    +0.000 A 
ATOM     24  C   UNL     1       7.132   0.595  26.616  0.00  0.00    +0.000 A 
ATOM     25  C   UNL     1       7.892  -0.499  27.022  0.00  0.00    +0.000 A 
ATOM     26  C   UNL     1       7.501  -1.796  26.715  0.00  0.00    +0.000 A 
ATOM     27  C   UNL     1       6.302  -2.012  26.019  0.00  0.00    +0.000 A 
BRANCH  25  28
ATOM     28  O   UNL     1       9.020  -0.303  27.767  0.00  0.00    +0.000 OA
ATOM     29  H   UNL     1       9.606  -1.046  27.518  0.00  0.00    +0.000 HD
ENDBRANCH  25  28
BRANCH  24  30
ATOM     30  O   UNL     1       7.563   1.842  26.977  0.00  0.00    +0.000 OA
ATOM     31  H   UNL     1       8.410   2.009  26.528  0.00  0.00    +0.000 HD
ENDBRANCH  24  30
ENDBRANCH  21  27
ENDBRANCH   1  21
TORSDOF 12
ENDMDL
MODEL 7
REMARK VINA RESULT:      -6.0      2.873      6.965
REMARK  Name = 
REMARK  12 active torsions:
REMARK  status: ('A' for Active; 'I' for Inactive)
REMARK    1  A    between atoms: C_3  and  O_26
REMARK    2  A    between atoms: C_4  and  O_25
REMARK    3  A    between atoms: C_6  and  C_7
REMARK    4  A    between atoms: C_7  and  C_8
REMARK    5  A    between atoms: C_8  and  C_9
REMARK    6  A    between atoms: C_8  and  O_12
REMARK    7  A    between atoms: C_9  and  O_11
REMARK    8  A    between atoms: O_12  and  C_13
REMARK    9  A    between atoms: C_13  and  C_15
REMARK   10  A    between atoms: C_16  and  C_17
REMARK   11  A    between atoms: C_19  and  O_24
REMARK   12  A    between atoms: C_20  and  O_23
REMARK                            x       y       z     vdW  Elec       q    Type
REMARK                         _______ _______ _______ _____ _____    ______ ____
ROOT
ATOM      1  C   UNL     1      10.019   1.230  23.173  0.00  0.00    +0.000 C 
ENDROOT
BRANCH   1   2
ATOM      2  C   UNL     1      10.448   0.999  24.623  0.00  0.00    +0.000 C 
ATOM      3  O   UNL     1      11.568   0.663  24.978  0.00  0.00    +0.000 OA
BRANCH   2   4
ATOM      4  O   UNL     1       9.420   1.114  25.503  0.00  0.00    +0.000 OA
ATOM      5  H   UNL     1       9.466   1.967  25.981  0.00  0.00    +0.000 HD
ENDBRANCH   2   4
ENDBRANCH   1   2
BRANCH   1   6
ATOM      6  O   UNL     1       9.127   0.181  22.736  0.00  0.00    +0.000 OA
BRANCH   6   7
ATOM      7  C   UNL     1       9.680  -1.062  22.740  0.00  0.00    +0.000 C 
ATOM      8  O   UNL     1      10.618  -1.429  22.055  0.00  0.00    +0.000 OA
BRANCH   7   9
ATOM      9  C   UNL     1       8.960  -1.906  23.714  0.00  0.00    +0.000 C 
ATOM     10  C   UNL     1       8.366  -3.036  23.294  0.00  0.00    +0.000 C 
BRANCH  10  11
ATOM     11  C   UNL     1       7.611  -3.957  24.160  0.00  0.00    +0.000 A 
ATOM     12  C   UNL     1       8.201  -4.387  25.362  0.00  0.00    +0.000 A 
ATOM     13  C   UNL     1       7.523  -5.288  26.181  0.00  0.00    +0.000 A 
ATOM     14  C   UNL     1       6.272  -5.772  25.809  0.00  0.00    +0.000 A 
ATOM     15  C   UNL     1       5.685  -5.376  24.622  0.00  0.00    +0.000 A 
ATOM     16  C   UNL     1       6.357  -4.471  23.794  0.00  0.00    +0.000 A 
BRANCH  13  17
ATOM     17  O   UNL     1       8.047  -5.730  27.363  0.00  0.00    +0.000 OA
ATOM     18  H   UNL     1       8.996  -5.905  27.233  0.00  0.00    +0.000 HD
ENDBRANCH  13  17
BRANCH  14  19
ATOM     19  O   UNL     1       5.617  -6.657  26.617  0.00  0.00    +0.000 OA
ATOM     20  H   UNL     1       4.716  -6.715  26.241  0.00  0.00    +0.000 HD
ENDBRANCH  14  19
ENDBRANCH  10  11
ENDBRANCH   7   9
ENDBRANCH   6   7
ENDBRANCH   1   6
BRANCH   1  21
ATOM     21  C   UNL     1       9.423   2.630  22.962  0.00  0.00    +0.000 C 
BRANCH  21  27
ATOM     22  C   UNL     1       9.771   4.900  24.036  0.00  0.00    +0.000 A 
ATOM     23  C   UNL     1      10.595   5.937  24.484  0.00  0.00    +0.000 A 
ATOM     24  C   UNL     1      11.957   5.882  24.218  0.00  0.00    +0.000 A 
ATOM     25  C   UNL     1      12.485   4.820  23.490  0.00  0.00    +0.000 A 
ATOM     26  C   UNL     1      11.670   3.797  23.021  0.00  0.00    +0.000 A 
ATOM     27  C   UNL     1      10.299   3.813  23.317  0.00  0.00    +0.000 A 
BRANCH  25  28
ATOM     28  O   UNL     1      13.830   4.755  23.263  0.00  0.00    +0.000 OA
ATOM     29  H   UNL     1      14.233   5.022  24.114  0.00  0.00    +0.000 HD
ENDBRANCH  25  28
BRANCH  24  30
ATOM     30  O   UNL     1      12.822   6.839  24.673  0.00  0.00    +0.000 OA
ATOM     31  H   UNL     1      12.679   6.944  25.629  0.00  0.00    +0.000 HD
ENDBRANCH  24  30
ENDBRANCH  21  27
ENDBRANCH   1  21
TORSDOF 12
ENDMDL
MODEL 8
REMARK VINA RESULT:      -6.0      2.358      6.999
REMARK  Name = 
REMARK  12 active torsions:
REMARK  status: ('A' for Active; 'I' for Inactive)
REMARK    1  A    between atoms: C_3  and  O_26
REMARK    2  A    between atoms: C_4  and  O_25
REMARK    3  A    between atoms: C_6  and  C_7
REMARK    4  A    between atoms: C_7  and  C_8
REMARK    5  A    between atoms: C_8  and  C_9
REMARK    6  A    between atoms: C_8  and  O_12
REMARK    7  A    between atoms: C_9  and  O_11
REMARK    8  A    between atoms: O_12  and  C_13
REMARK    9  A    between atoms: C_13  and  C_15
REMARK   10  A    between atoms: C_16  and  C_17
REMARK   11  A    between atoms: C_19  and  O_24
REMARK   12  A    between atoms: C_20  and  O_23
REMARK                            x       y       z     vdW  Elec       q    Type
REMARK                         _______ _______ _______ _____ _____    ______ ____
ROOT
ATOM      1  C   UNL     1       8.547   3.511  23.359  0.00  0.00    +0.000 C 
ENDROOT
BRANCH   1   2
ATOM      2  C   UNL     1       8.514   5.037  23.453  0.00  0.00    +0.000 C 
ATOM      3  O   UNL     1       8.572   5.678  24.493  0.00  0.00    +0.000 OA
BRANCH   2   4
ATOM      4  O   UNL     1       8.317   5.636  22.251  0.00  0.00    +0.000 OA
ATOM      5  H   UNL     1       7.421   6.027  22.200  0.00  0.00    +0.000 HD
ENDBRANCH   2   4
ENDBRANCH   1   2
BRANCH   1   6
ATOM      6  O   UNL     1       7.769   3.056  22.231  0.00  0.00    +0.000 OA
BRANCH   6   7
ATOM      7  C   UNL     1       6.584   2.477  22.565  0.00  0.00    +0.000 C 
ATOM      8  O   UNL     1       5.541   3.064  22.792  0.00  0.00    +0.000 OA
BRANCH   7   9
ATOM      9  C   UNL     1       6.759   1.012  22.610  0.00  0.00    +0.000 C 
ATOM     10  C   UNL     1       6.511   0.353  23.755  0.00  0.00    +0.000 C 
BRANCH  10  11
ATOM     11  C   UNL     1       6.655  -1.101  23.934  0.00  0.00    +0.000 A 
ATOM     12  C   UNL     1       6.671  -1.922  22.792  0.00  0.00    +0.000 A 
ATOM     13  C   UNL     1       6.770  -3.304  22.936  0.00  0.00    +0.000 A 
ATOM     14  C   UNL     1       6.842  -3.876  24.204  0.00  0.00    +0.000 A 
ATOM     15  C   UNL     1       6.809  -3.087  25.338  0.00  0.00    +0.000 A 
ATOM     16  C   UNL     1       6.711  -1.697  25.204  0.00  0.00    +0.000 A 
BRANCH  13  17
ATOM     17  O   UNL     1       6.798  -4.146  21.860  0.00  0.00    +0.000 OA
ATOM     18  H   UNL     1       5.909  -4.170  21.464  0.00  0.00    +0.000 HD
ENDBRANCH  13  17
BRANCH  14  19
ATOM     19  O   UNL     1       6.936  -5.231  24.335  0.00  0.00    +0.000 OA
ATOM     20  H   UNL     1       7.867  -5.437  24.119  0.00  0.00    +0.000 HD
ENDBRANCH  14  19
ENDBRANCH  10  11
ENDBRANCH   7   9
ENDBRANCH   6   7
ENDBRANCH   1   6
BRANCH   1  21
ATOM     21  C   UNL     1       9.982   2.964  23.338  0.00  0.00    +0.000 C 
BRANCH  21  27
ATOM     22  C   UNL     1      10.169   0.860  24.740  0.00  0.00    +0.000 A 
ATOM     23  C   UNL     1      10.193  -0.532  24.877  0.00  0.00    +0.000 A 
ATOM     24  C   UNL     1      10.190  -1.323  23.735  0.00  0.00    +0.000 A 
ATOM     25  C   UNL     1      10.193  -0.732  22.474  0.00  0.00    +0.000 A 
ATOM     26  C   UNL     1      10.193   0.650  22.330  0.00  0.00    +0.000 A 
ATOM     27  C   UNL     1      10.151   1.466  23.471  0.00  0.00    +0.000 A 
BRANCH  25  28
ATOM     28  O   UNL     1      10.154  -1.517  21.358  0.00  0.00    +0.000 OA
ATOM     29  H   UNL     1       9.804  -2.374  21.675  0.00  0.00    +0.000 HD
ENDBRANCH  25  28
BRANCH  24  30
ATOM     30  O   UNL     1      10.161  -2.688  23.802  0.00  0.00    +0.000 OA
ATOM     31  H   UNL     1       9.232  -2.966  23.873  0.00  0.00    +0.000 HD
ENDBRANCH  24  30
ENDBRANCH  21  27
ENDBRANCH   1  21
TORSDOF 12
ENDMDL
MODEL 9
REMARK VINA RESULT:      -5.9      2.269      4.967
REMARK  Name = 
REMARK  12 active torsions:
REMARK  status: ('A' for Active; 'I' for Inactive)
REMARK    1  A    between atoms: C_3  and  O_26
REMARK    2  A    between atoms: C_4  and  O_25
REMARK    3  A    between atoms: C_6  and  C_7
REMARK    4  A    between atoms: C_7  and  C_8
REMARK    5  A    between atoms: C_8  and  C_9
REMARK    6  A    between atoms: C_8  and  O_12
REMARK    7  A    between atoms: C_9  and  O_11
REMARK    8  A    between atoms: O_12  and  C_13
REMARK    9  A    between atoms: C_13  and  C_15
REMARK   10  A    between atoms: C_16  and  C_17
REMARK   11  A    between atoms: C_19  and  O_24
REMARK   12  A    between atoms: C_20  and  O_23
REMARK                            x       y       z     vdW  Elec       q    Type
REMARK                         _______ _______ _______ _____ _____    ______ ____
ROOT
ATOM      1  C   UNL     1       6.809  -4.897  23.117  0.00  0.00    +0.000 C 
ENDROOT
BRANCH   1   2
ATOM      2  C   UNL     1       6.252  -5.416  21.790  0.00  0.00    +0.000 C 
ATOM      3  O   UNL     1       5.946  -4.716  20.835  0.00  0.00    +0.000 OA
BRANCH   2   4
ATOM      4  O   UNL     1       6.032  -6.755  21.797  0.00  0.00    +0.000 OA
ATOM      5  H   UNL     1       5.708  -7.050  22.673  0.00  0.00    +0.000 HD
ENDBRANCH   2   4
ENDBRANCH   1   2
BRANCH   1   6
ATOM      6  O   UNL     1       7.856  -3.931  22.883  0.00  0.00    +0.000 OA
BRANCH   6   7
ATOM      7  C   UNL     1       8.762  -3.831  23.893  0.00  0.00    +0.000 C 
ATOM      8  O   UNL     1       9.249  -4.761  24.510  0.00  0.00    +0.000 OA
BRANCH   7   9
ATOM      9  C   UNL     1       9.067  -2.405  24.127  0.00  0.00    +0.000 C 
ATOM     10  C   UNL     1       9.184  -1.576  23.076  0.00  0.00    +0.000 C 
BRANCH  10  11
ATOM     11  C   UNL     1       9.493  -0.139  23.173  0.00  0.00    +0.000 A 
ATOM     12  C   UNL     1       8.731   0.767  22.413  0.00  0.00    +0.000 A 
ATOM     13  C   UNL     1       9.027   2.127  22.458  0.00  0.00    +0.000 A 
ATOM     14  C   UNL     1      10.079   2.592  23.243  0.00  0.00    +0.000 A 
ATOM     15  C   UNL     1      10.851   1.715  23.981  0.00  0.00    +0.000 A 
ATOM     16  C   UNL     1      10.561   0.347  23.943  0.00  0.00    +0.000 A 
BRANCH  13  17
ATOM     17  O   UNL     1       8.313   3.049  21.746  0.00  0.00    +0.000 OA
ATOM     18  H   UNL     1       8.087   3.788  22.338  0.00  0.00    +0.000 HD
ENDBRANCH  13  17
BRANCH  14  19
ATOM     19  O   UNL     1      10.364   3.926  23.278  0.00  0.00    +0.000 OA
ATOM     20  H   UNL     1      10.292   4.170  24.223  0.00  0.00    +0.000 HD
ENDBRANCH  14  19
ENDBRANCH  10  11
ENDBRANCH   7   9
ENDBRANCH   6   7
ENDBRANCH   1   6
BRANCH   1  21
ATOM     21  C   UNL     1       5.704  -4.352  24.034  0.00  0.00    +0.000 C 
BRANCH  21  27
ATOM     22  C   UNL     1       4.395  -6.111  25.306  0.00  0.00    +0.000 A 
ATOM     23  C   UNL     1       4.195  -6.932  26.421  0.00  0.00    +0.000 A 
ATOM     24  C   UNL     1       5.018  -6.780  27.528  0.00  0.00    +0.000 A 
ATOM     25  C   UNL     1       6.009  -5.802  27.535  0.00  0.00    +0.000 A 
ATOM     26  C   UNL     1       6.199  -4.967  26.441  0.00  0.00    +0.000 A 
ATOM     27  C   UNL     1       5.406  -5.134  25.295  0.00  0.00    +0.000 A 
BRANCH  25  28
ATOM     28  O   UNL     1       6.837  -5.682  28.614  0.00  0.00    +0.000 OA
ATOM     29  H   UNL     1       6.574  -6.418  29.204  0.00  0.00    +0.000 HD
ENDBRANCH  25  28
BRANCH  24  30
ATOM     30  O   UNL     1       4.906  -7.584  28.628  0.00  0.00    +0.000 OA
ATOM     31  H   UNL     1       4.381  -8.364  28.378  0.00  0.00    +0.000 HD
ENDBRANCH  24  30
ENDBRANCH  21  27
ENDBRANCH   1  21
TORSDOF 12
ENDMDL
