MODEL 1
REMARK VINA RESULT:      -4.9      0.000      0.000
REMARK  Name = 
REMARK  5 active torsions:
REMARK  status: ('A' for Active; 'I' for Inactive)
REMARK    1  A    between atoms: C_2  and  C_10
REMARK    2  A    between atoms: C_4  and  O_9
REMARK    3  A    between atoms: C_5  and  O_8
REMARK    4  A    between atoms: C_6  and  O_7
REMARK    5  A    between atoms: C_10  and  O_12
REMARK                            x       y       z     vdW  Elec       q    Type
REMARK                         _______ _______ _______ _____ _____    ______ ____
ROOT
ATOM      1  C   UNL     1       5.826  -5.329  24.781  0.00  0.00    +0.000 A 
ATOM      2  C   UNL     1       6.519  -5.272  23.563  0.00  0.00    +0.000 A 
ATOM      3  C   UNL     1       7.925  -5.206  23.546  0.00  0.00    +0.000 A 
ATOM      4  C   UNL     1       8.624  -5.226  24.747  0.00  0.00    +0.000 A 
ATOM      5  C   UNL     1       7.937  -5.308  25.952  0.00  0.00    +0.000 A 
ATOM      6  C   UNL     1       6.549  -5.358  25.966  0.00  0.00    +0.000 A 
ENDROOT
BRANCH   6   7
ATOM      7  O   UNL     1       5.877  -5.429  27.151  0.00  0.00    +0.000 OA
ATOM      8  H   UNL     1       5.238  -4.688  27.122  0.00  0.00    +0.000 HD
ENDBRANCH   6   7
BRANCH   5   9
ATOM      9  O   UNL     1       8.614  -5.327  27.141  0.00  0.00    +0.000 OA
ATOM     10  H   UNL     1       9.356  -4.702  27.008  0.00  0.00    +0.000 HD
ENDBRANCH   5   9
BRANCH   4  11
ATOM     11  O   UNL     1       9.988  -5.165  24.795  0.00  0.00    +0.000 OA
ATOM     12  H   UNL     1      10.249  -4.281  25.112  0.00  0.00    +0.000 HD
ENDBRANCH   4  11
BRANCH   2  13
ATOM     13  C   UNL     1       5.810  -5.235  22.260  0.00  0.00    +0.000 C 
ATOM     14  O   UNL     1       5.353  -4.205  21.796  0.00  0.00    +0.000 OA
BRANCH  13  15
ATOM     15  O   UNL     1       5.766  -6.419  21.617  0.00  0.00    +0.000 OA
ATOM     16  H   UNL     1       5.038  -7.015  21.873  0.00  0.00    +0.000 HD
ENDBRANCH  13  15
ENDBRANCH   2  13
TORSDOF 5
ENDMDL
MODEL 2
REMARK VINA RESULT:      -4.8      0.055      2.390
REMARK  Name = 
REMARK  5 active torsions:
REMARK  status: ('A' for Active; 'I' for Inactive)
REMARK    1  A    between atoms: C_2  and  C_10
REMARK    2  A    between atoms: C_4  and  O_9
REMARK    3  A    between atoms: C_5  and  O_8
REMARK    4  A    between atoms: C_6  and  O_7
REMARK    5  A    between atoms: C_10  and  O_12
REMARK                            x       y       z     vdW  Elec       q    Type
REMARK                         _______ _______ _______ _____ _____    ______ ____
ROOT
ATOM      1  C   UNL     1       7.952  -5.184  23.559  0.00  0.00    +0.000 A 
ATOM      2  C   UNL     1       6.551  -5.238  23.533  0.00  0.00    +0.000 A 
ATOM      3  C   UNL     1       5.821  -5.359  24.730  0.00  0.00    +0.000 A 
ATOM      4  C   UNL     1       6.499  -5.397  25.943  0.00  0.00    +0.000 A 
ATOM      5  C   UNL     1       7.886  -5.318  25.968  0.00  0.00    +0.000 A 
ATOM      6  C   UNL     1       8.605  -5.214  24.784  0.00  0.00    +0.000 A 
ENDROOT
BRANCH   6   7
ATOM      7  O   UNL     1       9.966  -5.146  24.812  0.00  0.00    +0.000 OA
ATOM      8  H   UNL     1      10.208  -4.641  24.008  0.00  0.00    +0.000 HD
ENDBRANCH   6   7
BRANCH   5   9
ATOM      9  O   UNL     1       8.565  -5.356  27.155  0.00  0.00    +0.000 OA
ATOM     10  H   UNL     1       8.669  -4.414  27.406  0.00  0.00    +0.000 HD
ENDBRANCH   5   9
BRANCH   4  11
ATOM     11  O   UNL     1       5.847  -5.513  27.138  0.00  0.00    +0.000 OA
ATOM     12  H   UNL     1       5.816  -4.635  27.561  0.00  0.00    +0.000 HD
ENDBRANCH   4  11
BRANCH   2  13
ATOM     13  C   UNL     1       5.790  -5.214  22.260  0.00  0.00    +0.000 C 
ATOM     14  O   UNL     1       5.293  -4.192  21.817  0.00  0.00    +0.000 OA
BRANCH  13  15
ATOM     15  O   UNL     1       5.746  -6.396  21.614  0.00  0.00    +0.000 OA
ATOM     16  H   UNL     1       5.614  -6.348  20.649  0.00  0.00    +0.000 HD
ENDBRANCH  13  15
ENDBRANCH   2  13
TORSDOF 5
ENDMDL
MODEL 3
REMARK VINA RESULT:      -4.8      5.982      6.967
REMARK  Name = 
REMARK  5 active torsions:
REMARK  status: ('A' for Active; 'I' for Inactive)
REMARK    1  A    between atoms: C_2  and  C_10
REMARK    2  A    between atoms: C_4  and  O_9
REMARK    3  A    between atoms: C_5  and  O_8
REMARK    4  A    between atoms: C_6  and  O_7
REMARK    5  A    between atoms: C_10  and  O_12
REMARK                            x       y       z     vdW  Elec       q    Type
REMARK                         _______ _______ _______ _____ _____    ______ ____
ROOT
ATOM      1  C   UNL     1       7.556  -0.219  22.732  0.00  0.00    +0.000 A 
ATOM      2  C   UNL     1       8.869  -0.681  22.565  0.00  0.00    +0.000 A 
ATOM      3  C   UNL     1       9.890   0.204  22.170  0.00  0.00    +0.000 A 
ATOM      4  C   UNL     1       9.591   1.547  21.973  0.00  0.00    +0.000 A 
ATOM      5  C   UNL     1       8.294   2.007  22.163  0.00  0.00    +0.000 A 
ATOM      6  C   UNL     1       7.286   1.129  22.538  0.00  0.00    +0.000 A 
ENDROOT
BRANCH   6   7
ATOM      7  O   UNL     1       6.012   1.582  22.715  0.00  0.00    +0.000 OA
ATOM      8  H   UNL     1       6.075   2.554  22.609  0.00  0.00    +0.000 HD
ENDBRANCH   6   7
BRANCH   5   9
ATOM      9  O   UNL     1       7.987   3.327  21.971  0.00  0.00    +0.000 OA
ATOM     10  H   UNL     1       7.478   3.577  22.770  0.00  0.00    +0.000 HD
ENDBRANCH   5   9
BRANCH   4  11
ATOM     11  O   UNL     1      10.539   2.454  21.590  0.00  0.00    +0.000 OA
ATOM     12  H   UNL     1      11.163   2.583  22.328  0.00  0.00    +0.000 HD
ENDBRANCH   4  11
BRANCH   2  13
ATOM     13  C   UNL     1       9.227  -2.108  22.753  0.00  0.00    +0.000 C 
ATOM     14  O   UNL     1      10.364  -2.466  23.013  0.00  0.00    +0.000 OA
BRANCH  13  15
ATOM     15  O   UNL     1       8.186  -2.960  22.668  0.00  0.00    +0.000 OA
ATOM     16  H   UNL     1       7.337  -2.567  22.393  0.00  0.00    +0.000 HD
ENDBRANCH  13  15
ENDBRANCH   2  13
TORSDOF 5
ENDMDL
MODEL 4
REMARK VINA RESULT:      -4.7      5.993      7.362
REMARK  Name = 
REMARK  5 active torsions:
REMARK  status: ('A' for Active; 'I' for Inactive)
REMARK    1  A    between atoms: C_2  and  C_10
REMARK    2  A    between atoms: C_4  and  O_9
REMARK    3  A    between atoms: C_5  and  O_8
REMARK    4  A    between atoms: C_6  and  O_7
REMARK    5  A    between atoms: C_10  and  O_12
REMARK                            x       y       z     vdW  Elec       q    Type
REMARK                         _______ _______ _______ _____ _____    ______ ____
ROOT
ATOM      1  C   UNL     1       9.730   0.220  22.178  0.00  0.00    +0.000 A 
ATOM      2  C   UNL     1       8.693  -0.639  22.570  0.00  0.00    +0.000 A 
ATOM      3  C   UNL     1       7.391  -0.141  22.767  0.00  0.00    +0.000 A 
ATOM      4  C   UNL     1       7.136   1.207  22.545  0.00  0.00    +0.000 A 
ATOM      5  C   UNL     1       8.159   2.052  22.133  0.00  0.00    +0.000 A 
ATOM      6  C   UNL     1       9.445   1.560  21.954  0.00  0.00    +0.000 A 
ENDROOT
BRANCH   6   7
ATOM      7  O   UNL     1      10.449   2.393  21.558  0.00  0.00    +0.000 OA
ATOM      8  H   UNL     1       9.993   3.188  21.212  0.00  0.00    +0.000 HD
ENDBRANCH   6   7
BRANCH   5   9
ATOM      9  O   UNL     1       7.920   3.380  21.912  0.00  0.00    +0.000 OA
ATOM     10  H   UNL     1       7.176   3.597  22.512  0.00  0.00    +0.000 HD
ENDBRANCH   5   9
BRANCH   4  11
ATOM     11  O   UNL     1       5.893   1.750  22.719  0.00  0.00    +0.000 OA
ATOM     12  H   UNL     1       5.976   2.721  22.717  0.00  0.00    +0.000 HD
ENDBRANCH   4  11
BRANCH   2  13
ATOM     13  C   UNL     1       8.927  -2.082  22.830  0.00  0.00    +0.000 C 
ATOM     14  O   UNL     1       8.149  -2.945  22.461  0.00  0.00    +0.000 OA
BRANCH  13  15
ATOM     15  O   UNL     1      10.091  -2.354  23.453  0.00  0.00    +0.000 OA
ATOM     16  H   UNL     1      10.719  -2.910  22.955  0.00  0.00    +0.000 HD
ENDBRANCH  13  15
ENDBRANCH   2  13
TORSDOF 5
ENDMDL
MODEL 5
REMARK VINA RESULT:      -4.7      6.327      7.430
REMARK  Name = 
REMARK  5 active torsions:
REMARK  status: ('A' for Active; 'I' for Inactive)
REMARK    1  A    between atoms: C_2  and  C_10
REMARK    2  A    between atoms: C_4  and  O_9
REMARK    3  A    between atoms: C_5  and  O_8
REMARK    4  A    between atoms: C_6  and  O_7
REMARK    5  A    between atoms: C_10  and  O_12
REMARK                            x       y       z     vdW  Elec       q    Type
REMARK                         _______ _______ _______ _____ _____    ______ ____
ROOT
ATOM      1  C   UNL     1      10.181   0.643  22.309  0.00  0.00    +0.000 A 
ATOM      2  C   UNL     1      10.062   1.525  23.393  0.00  0.00    +0.000 A 
ATOM      3  C   UNL     1       9.746   1.039  24.675  0.00  0.00    +0.000 A 
ATOM      4  C   UNL     1       9.580  -0.328  24.865  0.00  0.00    +0.000 A 
ATOM      5  C   UNL     1       9.723  -1.203  23.795  0.00  0.00    +0.000 A 
ATOM      6  C   UNL     1      10.020  -0.719  22.528  0.00  0.00    +0.000 A 
ENDROOT
BRANCH   6   7
ATOM      7  O   UNL     1      10.151  -1.579  21.478  0.00  0.00    +0.000 OA
ATOM      8  H   UNL     1      10.983  -2.066  21.655  0.00  0.00    +0.000 HD
ENDBRANCH   6   7
BRANCH   5   9
ATOM      9  O   UNL     1       9.561  -2.550  23.969  0.00  0.00    +0.000 OA
ATOM     10  H   UNL     1      10.349  -2.826  24.481  0.00  0.00    +0.000 HD
ENDBRANCH   5   9
BRANCH   4  11
ATOM     11  O   UNL     1       9.274  -0.861  26.086  0.00  0.00    +0.000 OA
ATOM     12  H   UNL     1       8.510  -1.458  25.982  0.00  0.00    +0.000 HD
ENDBRANCH   4  11
BRANCH   2  13
ATOM     13  C   UNL     1      10.219   2.991  23.229  0.00  0.00    +0.000 C 
ATOM     14  O   UNL     1      11.288   3.555  23.395  0.00  0.00    +0.000 OA
BRANCH  13  15
ATOM     15  O   UNL     1       9.101   3.631  22.831  0.00  0.00    +0.000 OA
ATOM     16  H   UNL     1       9.177   4.598  22.734  0.00  0.00    +0.000 HD
ENDBRANCH  13  15
ENDBRANCH   2  13
TORSDOF 5
ENDMDL
MODEL 6
REMARK VINA RESULT:      -4.7      6.308      7.158
REMARK  Name = 
REMARK  5 active torsions:
REMARK  status: ('A' for Active; 'I' for Inactive)
REMARK    1  A    between atoms: C_2  and  C_10
REMARK    2  A    between atoms: C_4  and  O_9
REMARK    3  A    between atoms: C_5  and  O_8
REMARK    4  A    between atoms: C_6  and  O_7
REMARK    5  A    between atoms: C_10  and  O_12
REMARK                            x       y       z     vdW  Elec       q    Type
REMARK                         _______ _______ _______ _____ _____    ______ ____
ROOT
ATOM      1  C   UNL     1       9.707   0.998  24.729  0.00  0.00    +0.000 A 
ATOM      2  C   UNL     1      10.007   1.522  23.463  0.00  0.00    +0.000 A 
ATOM      3  C   UNL     1      10.180   0.665  22.361  0.00  0.00    +0.000 A 
ATOM      4  C   UNL     1      10.025  -0.706  22.531  0.00  0.00    +0.000 A 
ATOM      5  C   UNL     1       9.703  -1.221  23.781  0.00  0.00    +0.000 A 
ATOM      6  C   UNL     1       9.547  -0.373  24.870  0.00  0.00    +0.000 A 
ENDROOT
BRANCH   6   7
ATOM      7  O   UNL     1       9.241  -0.883  26.097  0.00  0.00    +0.000 OA
ATOM      8  H   UNL     1      10.055  -1.344  26.388  0.00  0.00    +0.000 HD
ENDBRANCH   6   7
BRANCH   5   9
ATOM      9  O   UNL     1       9.548  -2.568  23.961  0.00  0.00    +0.000 OA
ATOM     10  H   UNL     1       9.055  -2.646  24.804  0.00  0.00    +0.000 HD
ENDBRANCH   5   9
BRANCH   4  11
ATOM     11  O   UNL     1      10.179  -1.589  21.499  0.00  0.00    +0.000 OA
ATOM     12  H   UNL     1       9.614  -1.303  20.758  0.00  0.00    +0.000 HD
ENDBRANCH   4  11
BRANCH   2  13
ATOM     13  C   UNL     1      10.193   2.978  23.242  0.00  0.00    +0.000 C 
ATOM     14  O   UNL     1      11.270   3.528  23.400  0.00  0.00    +0.000 OA
BRANCH  13  15
ATOM     15  O   UNL     1       9.094   3.620  22.802  0.00  0.00    +0.000 OA
ATOM     16  H   UNL     1       9.179   4.586  22.696  0.00  0.00    +0.000 HD
ENDBRANCH  13  15
ENDBRANCH   2  13
TORSDOF 5
ENDMDL
MODEL 7
REMARK VINA RESULT:      -4.7      6.042      7.416
REMARK  Name = 
REMARK  5 active torsions:
REMARK  status: ('A' for Active; 'I' for Inactive)
REMARK    1  A    between atoms: C_2  and  C_10
REMARK    2  A    between atoms: C_4  and  O_9
REMARK    3  A    between atoms: C_5  and  O_8
REMARK    4  A    between atoms: C_6  and  O_7
REMARK    5  A    between atoms: C_10  and  O_12
REMARK                            x       y       z     vdW  Elec       q    Type
REMARK                         _______ _______ _______ _____ _____    ______ ____
ROOT
ATOM      1  C   UNL     1       9.436  -0.879  23.571  0.00  0.00    +0.000 A 
ATOM      2  C   UNL     1       9.248  -0.267  24.819  0.00  0.00    +0.000 A 
ATOM      3  C   UNL     1       9.386   1.127  24.957  0.00  0.00    +0.000 A 
ATOM      4  C   UNL     1       9.684   1.897  23.839  0.00  0.00    +0.000 A 
ATOM      5  C   UNL     1       9.845   1.292  22.598  0.00  0.00    +0.000 A 
ATOM      6  C   UNL     1       9.723  -0.086  22.469  0.00  0.00    +0.000 A 
ENDROOT
BRANCH   6   7
ATOM      7  O   UNL     1       9.891  -0.678  21.252  0.00  0.00    +0.000 OA
ATOM      8  H   UNL     1      10.087   0.061  20.639  0.00  0.00    +0.000 HD
ENDBRANCH   6   7
BRANCH   5   9
ATOM      9  O   UNL     1      10.140   2.039  21.491  0.00  0.00    +0.000 OA
ATOM     10  H   UNL     1       9.406   2.684  21.430  0.00  0.00    +0.000 HD
ENDBRANCH   5   9
BRANCH   4  11
ATOM     11  O   UNL     1       9.830   3.254  23.908  0.00  0.00    +0.000 OA
ATOM     12  H   UNL     1       9.600   3.636  23.041  0.00  0.00    +0.000 HD
ENDBRANCH   4  11
BRANCH   2  13
ATOM     13  C   UNL     1       8.941  -1.054  26.039  0.00  0.00    +0.000 C 
ATOM     14  O   UNL     1       8.575  -2.216  25.990  0.00  0.00    +0.000 OA
BRANCH  13  15
ATOM     15  O   UNL     1       9.156  -0.396  27.196  0.00  0.00    +0.000 OA
ATOM     16  H   UNL     1      10.060  -0.056  27.329  0.00  0.00    +0.000 HD
ENDBRANCH  13  15
ENDBRANCH   2  13
TORSDOF 5
ENDMDL
MODEL 8
REMARK VINA RESULT:      -4.7      6.081      7.357
REMARK  Name = 
REMARK  5 active torsions:
REMARK  status: ('A' for Active; 'I' for Inactive)
REMARK    1  A    between atoms: C_2  and  C_10
REMARK    2  A    between atoms: C_4  and  O_9
REMARK    3  A    between atoms: C_5  and  O_8
REMARK    4  A    between atoms: C_6  and  O_7
REMARK    5  A    between atoms: C_10  and  O_12
REMARK                            x       y       z     vdW  Elec       q    Type
REMARK                         _______ _______ _______ _____ _____    ______ ____
ROOT
ATOM      1  C   UNL     1       9.449   1.192  24.918  0.00  0.00    +0.000 A 
ATOM      2  C   UNL     1       9.297  -0.197  24.802  0.00  0.00    +0.000 A 
ATOM      3  C   UNL     1       9.413  -0.824  23.547  0.00  0.00    +0.000 A 
ATOM      4  C   UNL     1       9.708  -0.057  22.426  0.00  0.00    +0.000 A 
ATOM      5  C   UNL     1       9.883   1.316  22.547  0.00  0.00    +0.000 A 
ATOM      6  C   UNL     1       9.752   1.933  23.785  0.00  0.00    +0.000 A 
ENDROOT
BRANCH   6   7
ATOM      7  O   UNL     1       9.916   3.282  23.899  0.00  0.00    +0.000 OA
ATOM      8  H   UNL     1      10.543   3.520  23.185  0.00  0.00    +0.000 HD
ENDBRANCH   6   7
BRANCH   5   9
ATOM      9  O   UNL     1      10.172   2.082  21.451  0.00  0.00    +0.000 OA
ATOM     10  H   UNL     1       9.458   1.873  20.813  0.00  0.00    +0.000 HD
ENDBRANCH   5   9
BRANCH   4  11
ATOM     11  O   UNL     1       9.834  -0.607  21.181  0.00  0.00    +0.000 OA
ATOM     12  H   UNL     1       9.365  -0.040  20.542  0.00  0.00    +0.000 HD
ENDBRANCH   4  11
BRANCH   2  13
ATOM     13  C   UNL     1       8.970  -1.050  25.972  0.00  0.00    +0.000 C 
ATOM     14  O   UNL     1       8.658  -2.223  25.856  0.00  0.00    +0.000 OA
BRANCH  13  15
ATOM     15  O   UNL     1       9.101  -0.435  27.164  0.00  0.00    +0.000 OA
ATOM     16  H   UNL     1       8.789   0.488  27.202  0.00  0.00    +0.000 HD
ENDBRANCH  13  15
ENDBRANCH   2  13
TORSDOF 5
ENDMDL
MODEL 9
REMARK VINA RESULT:      -4.6      6.346      6.974
REMARK  Name = 
REMARK  5 active torsions:
REMARK  status: ('A' for Active; 'I' for Inactive)
REMARK    1  A    between atoms: C_2  and  C_10
REMARK    2  A    between atoms: C_4  and  O_9
REMARK    3  A    between atoms: C_5  and  O_8
REMARK    4  A    between atoms: C_6  and  O_7
REMARK    5  A    between atoms: C_10  and  O_12
REMARK                            x       y       z     vdW  Elec       q    Type
REMARK                         _______ _______ _______ _____ _____    ______ ____
ROOT
ATOM      1  C   UNL     1       9.114  -0.261  24.651  0.00  0.00    +0.000 A 
ATOM      2  C   UNL     1       9.806  -0.365  23.436  0.00  0.00    +0.000 A 
ATOM      3  C   UNL     1      10.143   0.791  22.707  0.00  0.00    +0.000 A 
ATOM      4  C   UNL     1       9.808   2.040  23.216  0.00  0.00    +0.000 A 
ATOM      5  C   UNL     1       9.144   2.142  24.432  0.00  0.00    +0.000 A 
ATOM      6  C   UNL     1       8.799   0.999  25.141  0.00  0.00    +0.000 A 
ENDROOT
BRANCH   6   7
ATOM      7  O   UNL     1       8.140   1.102  26.330  0.00  0.00    +0.000 OA
ATOM      8  H   UNL     1       7.777   0.206  26.494  0.00  0.00    +0.000 HD
ENDBRANCH   6   7
BRANCH   5   9
ATOM      9  O   UNL     1       8.807   3.366  24.943  0.00  0.00    +0.000 OA
ATOM     10  H   UNL     1       8.824   3.238  25.914  0.00  0.00    +0.000 HD
ENDBRANCH   5   9
BRANCH   4  11
ATOM     11  O   UNL     1      10.109   3.199  22.556  0.00  0.00    +0.000 OA
ATOM     12  H   UNL     1      11.067   3.216  22.379  0.00  0.00    +0.000 HD
ENDBRANCH   4  11
BRANCH   2  13
ATOM     13  C   UNL     1      10.171  -1.680  22.852  0.00  0.00    +0.000 C 
ATOM     14  O   UNL     1      10.280  -2.686  23.532  0.00  0.00    +0.000 OA
BRANCH  13  15
ATOM     15  O   UNL     1      10.313  -1.675  21.512  0.00  0.00    +0.000 OA
ATOM     16  H   UNL     1       9.800  -0.997  21.033  0.00  0.00    +0.000 HD
ENDBRANCH  13  15
ENDBRANCH   2  13
TORSDOF 5
ENDMDL
