MODEL 1
REMARK VINA RESULT:      -7.5      0.000      0.000
REMARK  Name = 
REMARK  6 active torsions:
REMARK  status: ('A' for Active; 'I' for Inactive)
REMARK    1  A    between atoms: C_2  and  O_21
REMARK    2  A    between atoms: C_3  and  C_13
REMARK    3  A    between atoms: C_7  and  O_12
REMARK    4  A    between atoms: C_9  and  O_11
REMARK    5  A    between atoms: C_15  and  O_20
REMARK    6  A    between atoms: C_16  and  O_19
REMARK                            x       y       z     vdW  Elec       q    Type
REMARK                         _______ _______ _______ _____ _____    ______ ____
ROOT
ATOM      1  C   UNL     1      10.129  -0.106  22.724  0.00  0.00    +0.000 C 
ATOM      2  C   UNL     1      10.090  -1.340  23.621  0.00  0.00    +0.000 C 
ATOM      3  C   UNL     1       8.696  -1.398  24.281  0.00  0.00    +0.000 C 
ATOM      4  O   UNL     1       8.479  -0.263  25.140  0.00  0.00    +0.000 OA
ATOM      5  C   UNL     1       8.784   0.951  24.578  0.00  0.00    +0.000 A 
ATOM      6  C   UNL     1       8.292   2.078  25.243  0.00  0.00    +0.000 A 
ATOM      7  C   UNL     1       8.551   3.346  24.728  0.00  0.00    +0.000 A 
ATOM      8  C   UNL     1       9.292   3.507  23.564  0.00  0.00    +0.000 A 
ATOM      9  C   UNL     1       9.793   2.380  22.920  0.00  0.00    +0.000 A 
ATOM     10  C   UNL     1       9.567   1.095  23.422  0.00  0.00    +0.000 A 
ENDROOT
BRANCH   3  11
ATOM     11  C   UNL     1       8.483  -2.655  25.113  0.00  0.00    +0.000 A 
ATOM     12  C   UNL     1       9.299  -3.788  24.944  0.00  0.00    +0.000 A 
ATOM     13  C   UNL     1       9.097  -4.911  25.738  0.00  0.00    +0.000 A 
ATOM     14  C   UNL     1       8.093  -4.926  26.701  0.00  0.00    +0.000 A 
ATOM     15  C   UNL     1       7.267  -3.828  26.878  0.00  0.00    +0.000 A 
ATOM     16  C   UNL     1       7.462  -2.693  26.084  0.00  0.00    +0.000 A 
BRANCH  14  17
ATOM     17  O   UNL     1       7.919  -6.027  27.490  0.00  0.00    +0.000 OA
ATOM     18  H   UNL     1       7.829  -5.665  28.394  0.00  0.00    +0.000 HD
ENDBRANCH  14  17
BRANCH  13  19
ATOM     19  O   UNL     1       9.874  -6.031  25.615  0.00  0.00    +0.000 OA
ATOM     20  H   UNL     1      10.723  -5.855  26.055  0.00  0.00    +0.000 HD
ENDBRANCH  13  19
ENDBRANCH   3  11
BRANCH   7  21
ATOM     21  O   UNL     1       8.088   4.475  25.337  0.00  0.00    +0.000 OA
ATOM     22  H   UNL     1       8.521   4.560  26.201  0.00  0.00    +0.000 HD
ENDBRANCH   7  21
BRANCH   9  23
ATOM     23  O   UNL     1      10.525   2.512  21.773  0.00  0.00    +0.000 OA
ATOM     24  H   UNL     1      10.494   3.439  21.486  0.00  0.00    +0.000 HD
ENDBRANCH   9  23
BRANCH   2  25
ATOM     25  O   UNL     1      10.398  -2.496  22.840  0.00  0.00    +0.000 OA
ATOM     26  H   UNL     1      10.697  -3.200  23.437  0.00  0.00    +0.000 HD
ENDBRANCH   2  25
TORSDOF 6
ENDMDL
MODEL 2
REMARK VINA RESULT:      -7.3      1.394      6.776
REMARK  Name = 
REMARK  6 active torsions:
REMARK  status: ('A' for Active; 'I' for Inactive)
REMARK    1  A    between atoms: C_2  and  O_21
REMARK    2  A    between atoms: C_3  and  C_13
REMARK    3  A    between atoms: C_7  and  O_12
REMARK    4  A    between atoms: C_9  and  O_11
REMARK    5  A    between atoms: C_15  and  O_20
REMARK    6  A    between atoms: C_16  and  O_19
REMARK                            x       y       z     vdW  Elec       q    Type
REMARK                         _______ _______ _______ _____ _____    ______ ____
ROOT
ATOM      1  C   UNL     1       9.902  -3.368  24.109  0.00  0.00    +0.000 C 
ATOM      2  C   UNL     1       9.489  -2.121  23.334  0.00  0.00    +0.000 C 
ATOM      3  C   UNL     1       9.075  -1.044  24.358  0.00  0.00    +0.000 C 
ATOM      4  O   UNL     1       7.919  -1.457  25.110  0.00  0.00    +0.000 OA
ATOM      5  C   UNL     1       7.992  -2.726  25.628  0.00  0.00    +0.000 A 
ATOM      6  C   UNL     1       7.055  -3.042  26.616  0.00  0.00    +0.000 A 
ATOM      7  C   UNL     1       7.072  -4.308  27.196  0.00  0.00    +0.000 A 
ATOM      8  C   UNL     1       8.005  -5.261  26.808  0.00  0.00    +0.000 A 
ATOM      9  C   UNL     1       8.922  -4.943  25.810  0.00  0.00    +0.000 A 
ATOM     10  C   UNL     1       8.918  -3.688  25.194  0.00  0.00    +0.000 A 
ENDROOT
BRANCH   3  11
ATOM     11  C   UNL     1       8.753   0.298  23.716  0.00  0.00    +0.000 A 
ATOM     12  C   UNL     1       9.644   1.383  23.811  0.00  0.00    +0.000 A 
ATOM     13  C   UNL     1       9.334   2.589  23.190  0.00  0.00    +0.000 A 
ATOM     14  C   UNL     1       8.149   2.732  22.474  0.00  0.00    +0.000 A 
ATOM     15  C   UNL     1       7.250   1.683  22.378  0.00  0.00    +0.000 A 
ATOM     16  C   UNL     1       7.552   0.467  22.998  0.00  0.00    +0.000 A 
BRANCH  14  17
ATOM     17  O   UNL     1       7.867   3.913  21.851  0.00  0.00    +0.000 OA
ATOM     18  H   UNL     1       7.677   4.534  22.583  0.00  0.00    +0.000 HD
ENDBRANCH  14  17
BRANCH  13  19
ATOM     19  O   UNL     1      10.174   3.667  23.248  0.00  0.00    +0.000 OA
ATOM     20  H   UNL     1      10.952   3.411  23.774  0.00  0.00    +0.000 HD
ENDBRANCH  13  19
ENDBRANCH   3  11
BRANCH   7  21
ATOM     21  O   UNL     1       6.183  -4.663  28.168  0.00  0.00    +0.000 OA
ATOM     22  H   UNL     1       6.439  -5.530  28.520  0.00  0.00    +0.000 HD
ENDBRANCH   7  21
BRANCH   9  23
ATOM     23  O   UNL     1       9.850  -5.862  25.409  0.00  0.00    +0.000 OA
ATOM     24  H   UNL     1      10.180  -5.612  24.531  0.00  0.00    +0.000 HD
ENDBRANCH   9  23
BRANCH   2  25
ATOM     25  O   UNL     1      10.568  -1.717  22.487  0.00  0.00    +0.000 OA
ATOM     26  H   UNL     1      10.946  -2.509  22.072  0.00  0.00    +0.000 HD
ENDBRANCH   2  25
TORSDOF 6
ENDMDL
MODEL 3
REMARK VINA RESULT:      -7.3      3.147      3.358
REMARK  Name = 
REMARK  6 active torsions:
REMARK  status: ('A' for Active; 'I' for Inactive)
REMARK    1  A    between atoms: C_2  and  O_21
REMARK    2  A    between atoms: C_3  and  C_13
REMARK    3  A    between atoms: C_7  and  O_12
REMARK    4  A    between atoms: C_9  and  O_11
REMARK    5  A    between atoms: C_15  and  O_20
REMARK    6  A    between atoms: C_16  and  O_19
REMARK                            x       y       z     vdW  Elec       q    Type
REMARK                         _______ _______ _______ _____ _____    ______ ____
ROOT
ATOM      1  C   UNL     1       9.838  -1.343  24.225  0.00  0.00    +0.000 C 
ATOM      2  C   UNL     1       8.703  -2.359  24.312  0.00  0.00    +0.000 C 
ATOM      3  C   UNL     1       7.968  -2.362  22.954  0.00  0.00    +0.000 C 
ATOM      4  O   UNL     1       7.354  -1.086  22.692  0.00  0.00    +0.000 OA
ATOM      5  C   UNL     1       8.173  -0.002  22.885  0.00  0.00    +0.000 A 
ATOM      6  C   UNL     1       7.731   1.207  22.341  0.00  0.00    +0.000 A 
ATOM      7  C   UNL     1       8.513   2.351  22.487  0.00  0.00    +0.000 A 
ATOM      8  C   UNL     1       9.724   2.308  23.166  0.00  0.00    +0.000 A 
ATOM      9  C   UNL     1      10.146   1.103  23.720  0.00  0.00    +0.000 A 
ATOM     10  C   UNL     1       9.375  -0.058  23.608  0.00  0.00    +0.000 A 
ENDROOT
BRANCH   3  11
ATOM     11  C   UNL     1       6.882  -3.425  22.866  0.00  0.00    +0.000 A 
ATOM     12  C   UNL     1       7.158  -4.707  22.356  0.00  0.00    +0.000 A 
ATOM     13  C   UNL     1       6.151  -5.665  22.313  0.00  0.00    +0.000 A 
ATOM     14  C   UNL     1       4.871  -5.368  22.772  0.00  0.00    +0.000 A 
ATOM     15  C   UNL     1       4.572  -4.110  23.266  0.00  0.00    +0.000 A 
ATOM     16  C   UNL     1       5.577  -3.139  23.313  0.00  0.00    +0.000 A 
BRANCH  14  17
ATOM     17  O   UNL     1       3.897  -6.325  22.745  0.00  0.00    +0.000 OA
ATOM     18  H   UNL     1       4.274  -7.068  23.258  0.00  0.00    +0.000 HD
ENDBRANCH  14  17
BRANCH  13  19
ATOM     19  O   UNL     1       6.376  -6.927  21.834  0.00  0.00    +0.000 OA
ATOM     20  H   UNL     1       5.672  -7.133  21.195  0.00  0.00    +0.000 HD
ENDBRANCH  13  19
ENDBRANCH   3  11
BRANCH   7  21
ATOM     21  O   UNL     1       8.128   3.553  21.970  0.00  0.00    +0.000 OA
ATOM     22  H   UNL     1       7.161   3.619  22.027  0.00  0.00    +0.000 HD
ENDBRANCH   7  21
BRANCH   9  23
ATOM     23  O   UNL     1      11.334   1.033  24.393  0.00  0.00    +0.000 OA
ATOM     24  H   UNL     1      11.728   1.921  24.425  0.00  0.00    +0.000 HD
ENDBRANCH   9  23
BRANCH   2  25
ATOM     25  O   UNL     1       9.241  -3.634  24.670  0.00  0.00    +0.000 OA
ATOM     26  H   UNL     1      10.018  -3.492  25.236  0.00  0.00    +0.000 HD
ENDBRANCH   2  25
TORSDOF 6
ENDMDL
MODEL 4
REMARK VINA RESULT:      -7.3      2.843      7.436
REMARK  Name = 
REMARK  6 active torsions:
REMARK  status: ('A' for Active; 'I' for Inactive)
REMARK    1  A    between atoms: C_2  and  O_21
REMARK    2  A    between atoms: C_3  and  C_13
REMARK    3  A    between atoms: C_7  and  O_12
REMARK    4  A    between atoms: C_9  and  O_11
REMARK    5  A    between atoms: C_15  and  O_20
REMARK    6  A    between atoms: C_16  and  O_19
REMARK                            x       y       z     vdW  Elec       q    Type
REMARK                         _______ _______ _______ _____ _____    ______ ____
ROOT
ATOM      1  C   UNL     1       5.458  -4.711  23.019  0.00  0.00    +0.000 C 
ATOM      2  C   UNL     1       5.822  -3.296  22.582  0.00  0.00    +0.000 C 
ATOM      3  C   UNL     1       7.247  -2.996  23.095  0.00  0.00    +0.000 C 
ATOM      4  O   UNL     1       7.294  -3.003  24.534  0.00  0.00    +0.000 OA
ATOM      5  C   UNL     1       6.702  -4.091  25.124  0.00  0.00    +0.000 A 
ATOM      6  C   UNL     1       7.005  -4.299  26.473  0.00  0.00    +0.000 A 
ATOM      7  C   UNL     1       6.450  -5.389  27.140  0.00  0.00    +0.000 A 
ATOM      8  C   UNL     1       5.600  -6.272  26.484  0.00  0.00    +0.000 A 
ATOM      9  C   UNL     1       5.291  -6.045  25.147  0.00  0.00    +0.000 A 
ATOM     10  C   UNL     1       5.816  -4.949  24.455  0.00  0.00    +0.000 A 
ENDROOT
BRANCH   3  11
ATOM     11  C   UNL     1       7.780  -1.651  22.621  0.00  0.00    +0.000 A 
ATOM     12  C   UNL     1       7.102  -0.454  22.917  0.00  0.00    +0.000 A 
ATOM     13  C   UNL     1       7.629   0.762  22.494  0.00  0.00    +0.000 A 
ATOM     14  C   UNL     1       8.822   0.806  21.780  0.00  0.00    +0.000 A 
ATOM     15  C   UNL     1       9.501  -0.359  21.465  0.00  0.00    +0.000 A 
ATOM     16  C   UNL     1       8.980  -1.587  21.885  0.00  0.00    +0.000 A 
BRANCH  14  17
ATOM     17  O   UNL     1       9.340   2.007  21.390  0.00  0.00    +0.000 OA
ATOM     18  H   UNL     1       9.055   2.632  22.087  0.00  0.00    +0.000 HD
ENDBRANCH  14  17
BRANCH  13  19
ATOM     19  O   UNL     1       7.009   1.951  22.767  0.00  0.00    +0.000 OA
ATOM     20  H   UNL     1       7.018   2.077  23.732  0.00  0.00    +0.000 HD
ENDBRANCH  13  19
ENDBRANCH   3  11
BRANCH   7  21
ATOM     21  O   UNL     1       6.719  -5.639  28.453  0.00  0.00    +0.000 OA
ATOM     22  H   UNL     1       5.961  -5.347  28.985  0.00  0.00    +0.000 HD
ENDBRANCH   7  21
BRANCH   9  23
ATOM     23  O   UNL     1       4.457  -6.898  24.479  0.00  0.00    +0.000 OA
ATOM     24  H   UNL     1       4.919  -7.237  23.694  0.00  0.00    +0.000 HD
ENDBRANCH   9  23
BRANCH   2  25
ATOM     25  O   UNL     1       5.696  -3.197  21.162  0.00  0.00    +0.000 OA
ATOM     26  H   UNL     1       5.484  -2.277  20.935  0.00  0.00    +0.000 HD
ENDBRANCH   2  25
TORSDOF 6
ENDMDL
MODEL 5
REMARK VINA RESULT:      -7.2      2.957      7.629
REMARK  Name = 
REMARK  6 active torsions:
REMARK  status: ('A' for Active; 'I' for Inactive)
REMARK    1  A    between atoms: C_2  and  O_21
REMARK    2  A    between atoms: C_3  and  C_13
REMARK    3  A    between atoms: C_7  and  O_12
REMARK    4  A    between atoms: C_9  and  O_11
REMARK    5  A    between atoms: C_15  and  O_20
REMARK    6  A    between atoms: C_16  and  O_19
REMARK                            x       y       z     vdW  Elec       q    Type
REMARK                         _______ _______ _______ _____ _____    ______ ____
ROOT
ATOM      1  C   UNL     1       7.006  -4.431  26.612  0.00  0.00    +0.000 C 
ATOM      2  C   UNL     1       7.817  -3.525  25.690  0.00  0.00    +0.000 C 
ATOM      3  C   UNL     1       6.840  -2.875  24.688  0.00  0.00    +0.000 C 
ATOM      4  O   UNL     1       6.222  -3.867  23.845  0.00  0.00    +0.000 OA
ATOM      5  C   UNL     1       5.706  -4.949  24.513  0.00  0.00    +0.000 A 
ATOM      6  C   UNL     1       4.829  -5.758  23.786  0.00  0.00    +0.000 A 
ATOM      7  C   UNL     1       4.256  -6.871  24.398  0.00  0.00    +0.000 A 
ATOM      8  C   UNL     1       4.543  -7.188  25.719  0.00  0.00    +0.000 A 
ATOM      9  C   UNL     1       5.431  -6.385  26.429  0.00  0.00    +0.000 A 
ATOM     10  C   UNL     1       6.039  -5.274  25.837  0.00  0.00    +0.000 A 
ENDROOT
BRANCH   3  11
ATOM     11  C   UNL     1       7.508  -1.850  23.782  0.00  0.00    +0.000 A 
ATOM     12  C   UNL     1       8.650  -2.179  23.030  0.00  0.00    +0.000 A 
ATOM     13  C   UNL     1       9.223  -1.229  22.190  0.00  0.00    +0.000 A 
ATOM     14  C   UNL     1       8.674   0.046  22.087  0.00  0.00    +0.000 A 
ATOM     15  C   UNL     1       7.558   0.398  22.827  0.00  0.00    +0.000 A 
ATOM     16  C   UNL     1       6.975  -0.550  23.674  0.00  0.00    +0.000 A 
BRANCH  14  17
ATOM     17  O   UNL     1       9.231   0.962  21.242  0.00  0.00    +0.000 OA
ATOM     18  H   UNL     1       8.647   1.744  21.314  0.00  0.00    +0.000 HD
ENDBRANCH  14  17
BRANCH  13  19
ATOM     19  O   UNL     1      10.328  -1.507  21.433  0.00  0.00    +0.000 OA
ATOM     20  H   UNL     1      10.032  -1.660  20.520  0.00  0.00    +0.000 HD
ENDBRANCH  13  19
ENDBRANCH   3  11
BRANCH   7  21
ATOM     21  O   UNL     1       3.390  -7.689  23.732  0.00  0.00    +0.000 OA
ATOM     22  H   UNL     1       3.482  -8.588  24.085  0.00  0.00    +0.000 HD
ENDBRANCH   7  21
BRANCH   9  23
ATOM     23  O   UNL     1       5.731  -6.675  27.731  0.00  0.00    +0.000 OA
ATOM     24  H   UNL     1       5.147  -7.389  28.035  0.00  0.00    +0.000 HD
ENDBRANCH   9  23
BRANCH   2  25
ATOM     25  O   UNL     1       8.537  -2.576  26.480  0.00  0.00    +0.000 OA
ATOM     26  H   UNL     1       9.095  -3.060  27.109  0.00  0.00    +0.000 HD
ENDBRANCH   2  25
TORSDOF 6
ENDMDL
MODEL 6
REMARK VINA RESULT:      -7.2      2.652      4.146
REMARK  Name = 
REMARK  6 active torsions:
REMARK  status: ('A' for Active; 'I' for Inactive)
REMARK    1  A    between atoms: C_2  and  O_21
REMARK    2  A    between atoms: C_3  and  C_13
REMARK    3  A    between atoms: C_7  and  O_12
REMARK    4  A    between atoms: C_9  and  O_11
REMARK    5  A    between atoms: C_15  and  O_20
REMARK    6  A    between atoms: C_16  and  O_19
REMARK                            x       y       z     vdW  Elec       q    Type
REMARK                         _______ _______ _______ _____ _____    ______ ____
ROOT
ATOM      1  C   UNL     1       9.460  -3.821  24.282  0.00  0.00    +0.000 C 
ATOM      2  C   UNL     1       8.790  -4.509  25.467  0.00  0.00    +0.000 C 
ATOM      3  C   UNL     1       7.285  -4.637  25.150  0.00  0.00    +0.000 C 
ATOM      4  O   UNL     1       6.667  -3.342  25.030  0.00  0.00    +0.000 OA
ATOM      5  C   UNL     1       7.338  -2.456  24.224  0.00  0.00    +0.000 A 
ATOM      6  C   UNL     1       6.622  -1.324  23.826  0.00  0.00    +0.000 A 
ATOM      7  C   UNL     1       7.232  -0.383  22.999  0.00  0.00    +0.000 A 
ATOM      8  C   UNL     1       8.541  -0.553  22.566  0.00  0.00    +0.000 A 
ATOM      9  C   UNL     1       9.251  -1.675  22.983  0.00  0.00    +0.000 A 
ATOM     10  C   UNL     1       8.674  -2.627  23.829  0.00  0.00    +0.000 A 
ENDROOT
BRANCH   3  11
ATOM     11  C   UNL     1       6.517  -5.419  26.207  0.00  0.00    +0.000 A 
ATOM     12  C   UNL     1       6.861  -5.335  27.568  0.00  0.00    +0.000 A 
ATOM     13  C   UNL     1       6.124  -6.040  28.513  0.00  0.00    +0.000 A 
ATOM     14  C   UNL     1       5.046  -6.830  28.124  0.00  0.00    +0.000 A 
ATOM     15  C   UNL     1       4.697  -6.940  26.788  0.00  0.00    +0.000 A 
ATOM     16  C   UNL     1       5.432  -6.235  25.830  0.00  0.00    +0.000 A 
BRANCH  14  17
ATOM     17  O   UNL     1       4.316  -7.500  29.063  0.00  0.00    +0.000 OA
ATOM     18  H   UNL     1       3.482  -6.993  29.128  0.00  0.00    +0.000 HD
ENDBRANCH  14  17
BRANCH  13  19
ATOM     19  O   UNL     1       6.416  -5.980  29.849  0.00  0.00    +0.000 OA
ATOM     20  H   UNL     1       5.576  -6.001  30.339  0.00  0.00    +0.000 HD
ENDBRANCH  13  19
ENDBRANCH   3  11
BRANCH   7  21
ATOM     21  O   UNL     1       6.574   0.735  22.578  0.00  0.00    +0.000 OA
ATOM     22  H   UNL     1       5.934   0.478  21.895  0.00  0.00    +0.000 HD
ENDBRANCH   7  21
BRANCH   9  23
ATOM     23  O   UNL     1      10.540  -1.866  22.572  0.00  0.00    +0.000 OA
ATOM     24  H   UNL     1      10.866  -1.044  22.169  0.00  0.00    +0.000 HD
ENDBRANCH   9  23
BRANCH   2  25
ATOM     25  O   UNL     1       9.431  -5.766  25.702  0.00  0.00    +0.000 OA
ATOM     26  H   UNL     1       8.951  -6.452  25.211  0.00  0.00    +0.000 HD
ENDBRANCH   2  25
TORSDOF 6
ENDMDL
MODEL 7
REMARK VINA RESULT:      -7.1      2.114      2.349
REMARK  Name = 
REMARK  6 active torsions:
REMARK  status: ('A' for Active; 'I' for Inactive)
REMARK    1  A    between atoms: C_2  and  O_21
REMARK    2  A    between atoms: C_3  and  C_13
REMARK    3  A    between atoms: C_7  and  O_12
REMARK    4  A    between atoms: C_9  and  O_11
REMARK    5  A    between atoms: C_15  and  O_20
REMARK    6  A    between atoms: C_16  and  O_19
REMARK                            x       y       z     vdW  Elec       q    Type
REMARK                         _______ _______ _______ _____ _____    ______ ____
ROOT
ATOM      1  C   UNL     1       9.757  -0.458  22.676  0.00  0.00    +0.000 C 
ATOM      2  C   UNL     1       9.331  -1.573  23.626  0.00  0.00    +0.000 C 
ATOM      3  C   UNL     1       7.891  -1.986  23.256  0.00  0.00    +0.000 C 
ATOM      4  O   UNL     1       6.969  -0.899  23.465  0.00  0.00    +0.000 OA
ATOM      5  C   UNL     1       7.365   0.302  22.932  0.00  0.00    +0.000 A 
ATOM      6  C   UNL     1       6.375   1.284  22.827  0.00  0.00    +0.000 A 
ATOM      7  C   UNL     1       6.697   2.527  22.288  0.00  0.00    +0.000 A 
ATOM      8  C   UNL     1       7.987   2.806  21.852  0.00  0.00    +0.000 A 
ATOM      9  C   UNL     1       8.968   1.827  21.977  0.00  0.00    +0.000 A 
ATOM     10  C   UNL     1       8.682   0.577  22.533  0.00  0.00    +0.000 A 
ENDROOT
BRANCH   3  11
ATOM     11  C   UNL     1       7.387  -3.179  24.056  0.00  0.00    +0.000 A 
ATOM     12  C   UNL     1       7.544  -3.237  25.452  0.00  0.00    +0.000 A 
ATOM     13  C   UNL     1       7.049  -4.328  26.159  0.00  0.00    +0.000 A 
ATOM     14  C   UNL     1       6.399  -5.365  25.496  0.00  0.00    +0.000 A 
ATOM     15  C   UNL     1       6.246  -5.337  24.120  0.00  0.00    +0.000 A 
ATOM     16  C   UNL     1       6.739  -4.245  23.400  0.00  0.00    +0.000 A 
BRANCH  14  17
ATOM     17  O   UNL     1       5.898  -6.420  26.203  0.00  0.00    +0.000 OA
ATOM     18  H   UNL     1       5.164  -6.036  26.723  0.00  0.00    +0.000 HD
ENDBRANCH  14  17
BRANCH  13  19
ATOM     19  O   UNL     1       7.169  -4.422  27.519  0.00  0.00    +0.000 OA
ATOM     20  H   UNL     1       6.303  -4.215  27.910  0.00  0.00    +0.000 HD
ENDBRANCH  13  19
ENDBRANCH   3  11
BRANCH   7  21
ATOM     21  O   UNL     1       5.766   3.516  22.159  0.00  0.00    +0.000 OA
ATOM     22  H   UNL     1       5.554   3.620  21.218  0.00  0.00    +0.000 HD
ENDBRANCH   7  21
BRANCH   9  23
ATOM     23  O   UNL     1      10.245   2.076  21.557  0.00  0.00    +0.000 OA
ATOM     24  H   UNL     1      10.494   2.975  21.827  0.00  0.00    +0.000 HD
ENDBRANCH   9  23
BRANCH   2  25
ATOM     25  O   UNL     1      10.271  -2.647  23.538  0.00  0.00    +0.000 OA
ATOM     26  H   UNL     1      11.165  -2.283  23.640  0.00  0.00    +0.000 HD
ENDBRANCH   2  25
TORSDOF 6
ENDMDL
MODEL 8
REMARK VINA RESULT:      -7.1      1.810      6.630
REMARK  Name = 
REMARK  6 active torsions:
REMARK  status: ('A' for Active; 'I' for Inactive)
REMARK    1  A    between atoms: C_2  and  O_21
REMARK    2  A    between atoms: C_3  and  C_13
REMARK    3  A    between atoms: C_7  and  O_12
REMARK    4  A    between atoms: C_9  and  O_11
REMARK    5  A    between atoms: C_15  and  O_20
REMARK    6  A    between atoms: C_16  and  O_19
REMARK                            x       y       z     vdW  Elec       q    Type
REMARK                         _______ _______ _______ _____ _____    ______ ____
ROOT
ATOM      1  C   UNL     1       8.829  -4.207  25.590  0.00  0.00    +0.000 C 
ATOM      2  C   UNL     1       9.151  -3.162  24.527  0.00  0.00    +0.000 C 
ATOM      3  C   UNL     1       8.976  -1.768  25.168  0.00  0.00    +0.000 C 
ATOM      4  O   UNL     1       7.609  -1.543  25.560  0.00  0.00    +0.000 OA
ATOM      5  C   UNL     1       7.039  -2.566  26.276  0.00  0.00    +0.000 A 
ATOM      6  C   UNL     1       5.849  -2.261  26.942  0.00  0.00    +0.000 A 
ATOM      7  C   UNL     1       5.215  -3.245  27.698  0.00  0.00    +0.000 A 
ATOM      8  C   UNL     1       5.748  -4.524  27.798  0.00  0.00    +0.000 A 
ATOM      9  C   UNL     1       6.923  -4.823  27.115  0.00  0.00    +0.000 A 
ATOM     10  C   UNL     1       7.572  -3.863  26.332  0.00  0.00    +0.000 A 
ENDROOT
BRANCH   3  11
ATOM     11  C   UNL     1       9.385  -0.631  24.243  0.00  0.00    +0.000 A 
ATOM     12  C   UNL     1       8.930  -0.575  22.913  0.00  0.00    +0.000 A 
ATOM     13  C   UNL     1       9.299   0.491  22.100  0.00  0.00    +0.000 A 
ATOM     14  C   UNL     1      10.116   1.506  22.590  0.00  0.00    +0.000 A 
ATOM     15  C   UNL     1      10.588   1.466  23.891  0.00  0.00    +0.000 A 
ATOM     16  C   UNL     1      10.223   0.398  24.717  0.00  0.00    +0.000 A 
BRANCH  14  17
ATOM     17  O   UNL     1      10.452   2.559  21.789  0.00  0.00    +0.000 OA
ATOM     18  H   UNL     1      11.266   2.921  22.194  0.00  0.00    +0.000 HD
ENDBRANCH  14  17
BRANCH  13  19
ATOM     19  O   UNL     1       8.872   0.592  20.804  0.00  0.00    +0.000 OA
ATOM     20  H   UNL     1       9.028   1.506  20.508  0.00  0.00    +0.000 HD
ENDBRANCH  13  19
ENDBRANCH   3  11
BRANCH   7  21
ATOM     21  O   UNL     1       4.056  -2.996  28.372  0.00  0.00    +0.000 OA
ATOM     22  H   UNL     1       3.310  -3.280  27.819  0.00  0.00    +0.000 HD
ENDBRANCH   7  21
BRANCH   9  23
ATOM     23  O   UNL     1       7.468  -6.074  27.197  0.00  0.00    +0.000 OA
ATOM     24  H   UNL     1       6.834  -6.715  26.836  0.00  0.00    +0.000 HD
ENDBRANCH   9  23
BRANCH   2  25
ATOM     25  O   UNL     1      10.468  -3.396  24.024  0.00  0.00    +0.000 OA
ATOM     26  H   UNL     1      10.511  -3.070  23.111  0.00  0.00    +0.000 HD
ENDBRANCH   2  25
TORSDOF 6
ENDMDL
MODEL 9
REMARK VINA RESULT:      -7.0      2.303      2.662
REMARK  Name = 
REMARK  6 active torsions:
REMARK  status: ('A' for Active; 'I' for Inactive)
REMARK    1  A    between atoms: C_2  and  O_21
REMARK    2  A    between atoms: C_3  and  C_13
REMARK    3  A    between atoms: C_7  and  O_12
REMARK    4  A    between atoms: C_9  and  O_11
REMARK    5  A    between atoms: C_15  and  O_20
REMARK    6  A    between atoms: C_16  and  O_19
REMARK                            x       y       z     vdW  Elec       q    Type
REMARK                         _______ _______ _______ _____ _____    ______ ____
ROOT
ATOM      1  C   UNL     1      10.062   0.747  22.235  0.00  0.00    +0.000 C 
ATOM      2  C   UNL     1       9.670  -0.698  22.530  0.00  0.00    +0.000 C 
ATOM      3  C   UNL     1       8.156  -0.725  22.825  0.00  0.00    +0.000 C 
ATOM      4  O   UNL     1       7.842   0.031  24.010  0.00  0.00    +0.000 OA
ATOM      5  C   UNL     1       8.402   1.284  24.058  0.00  0.00    +0.000 A 
ATOM      6  C   UNL     1       7.872   2.157  25.012  0.00  0.00    +0.000 A 
ATOM      7  C   UNL     1       8.381   3.449  25.115  0.00  0.00    +0.000 A 
ATOM      8  C   UNL     1       9.407   3.883  24.285  0.00  0.00    +0.000 A 
ATOM      9  C   UNL     1       9.939   3.000  23.351  0.00  0.00    +0.000 A 
ATOM     10  C   UNL     1       9.464   1.690  23.236  0.00  0.00    +0.000 A 
ENDROOT
BRANCH   3  11
ATOM     11  C   UNL     1       7.611  -2.134  23.018  0.00  0.00    +0.000 A 
ATOM     12  C   UNL     1       6.331  -2.489  22.555  0.00  0.00    +0.000 A 
ATOM     13  C   UNL     1       5.872  -3.791  22.722  0.00  0.00    +0.000 A 
ATOM     14  C   UNL     1       6.668  -4.748  23.345  0.00  0.00    +0.000 A 
ATOM     15  C   UNL     1       7.926  -4.419  23.822  0.00  0.00    +0.000 A 
ATOM     16  C   UNL     1       8.397  -3.113  23.658  0.00  0.00    +0.000 A 
BRANCH  14  17
ATOM     17  O   UNL     1       6.215  -6.028  23.483  0.00  0.00    +0.000 OA
ATOM     18  H   UNL     1       5.253  -5.963  23.320  0.00  0.00    +0.000 HD
ENDBRANCH  14  17
BRANCH  13  19
ATOM     19  O   UNL     1       4.639  -4.184  22.279  0.00  0.00    +0.000 OA
ATOM     20  H   UNL     1       4.250  -3.443  21.783  0.00  0.00    +0.000 HD
ENDBRANCH  13  19
ENDBRANCH   3  11
BRANCH   7  21
ATOM     21  O   UNL     1       7.894   4.341  26.026  0.00  0.00    +0.000 OA
ATOM     22  H   UNL     1       8.411   4.261  26.844  0.00  0.00    +0.000 HD
ENDBRANCH   7  21
BRANCH   9  23
ATOM     23  O   UNL     1      10.950   3.401  22.522  0.00  0.00    +0.000 OA
ATOM     24  H   UNL     1      10.775   3.062  21.628  0.00  0.00    +0.000 HD
ENDBRANCH   9  23
BRANCH   2  25
ATOM     25  O   UNL     1      10.050  -1.520  21.424  0.00  0.00    +0.000 OA
ATOM     26  H   UNL     1      10.931  -1.888  21.602  0.00  0.00    +0.000 HD
ENDBRANCH   2  25
TORSDOF 6
ENDMDL
