MODEL 1
REMARK VINA RESULT:      -5.8      0.000      0.000
REMARK  Name = 
REMARK  5 active torsions:
REMARK  status: ('A' for Active; 'I' for Inactive)
REMARK    1  A    between atoms: C_3  and  O_13
REMARK    2  A    between atoms: C_4  and  O_12
REMARK    3  A    between atoms: C_6  and  C_7
REMARK    4  A    between atoms: C_8  and  C_9
REMARK    5  A    between atoms: C_9  and  O_11
REMARK                            x       y       z     vdW  Elec       q    Type
REMARK                         _______ _______ _______ _____ _____    ______ ____
ROOT
ATOM      1  C   UNL     1       9.496  -1.417  22.070  0.00  0.00    +0.000 A 
ATOM      2  C   UNL     1       9.469  -0.196  21.382  0.00  0.00    +0.000 A 
ATOM      3  C   UNL     1       9.860   0.960  22.042  0.00  0.00    +0.000 A 
ATOM      4  C   UNL     1      10.264   0.901  23.372  0.00  0.00    +0.000 A 
ATOM      5  C   UNL     1      10.293  -0.305  24.062  0.00  0.00    +0.000 A 
ATOM      6  C   UNL     1       9.922  -1.491  23.409  0.00  0.00    +0.000 A 
ENDROOT
BRANCH   6   7
ATOM      7  C   UNL     1       9.920  -2.800  24.086  0.00  0.00    +0.000 C 
ATOM      8  C   UNL     1       8.827  -3.561  24.259  0.00  0.00    +0.000 C 
BRANCH   8   9
ATOM      9  C   UNL     1       8.934  -4.849  24.977  0.00  0.00    +0.000 C 
ATOM     10  O   UNL     1       8.012  -5.399  25.556  0.00  0.00    +0.000 OA
BRANCH   9  11
ATOM     11  O   UNL     1      10.177  -5.362  24.914  0.00  0.00    +0.000 OA
ATOM     12  H   UNL     1      10.687  -5.139  24.115  0.00  0.00    +0.000 HD
ENDBRANCH   9  11
ENDBRANCH   8   9
ENDBRANCH   6   7
BRANCH   4  13
ATOM     13  O   UNL     1      10.640   2.043  24.022  0.00  0.00    +0.000 OA
ATOM     14  H   UNL     1      10.082   2.064  24.825  0.00  0.00    +0.000 HD
ENDBRANCH   4  13
BRANCH   3  15
ATOM     15  O   UNL     1       9.862   2.182  21.430  0.00  0.00    +0.000 OA
ATOM     16  H   UNL     1      10.288   2.087  20.562  0.00  0.00    +0.000 HD
ENDBRANCH   3  15
TORSDOF 5
ENDMDL
MODEL 2
REMARK VINA RESULT:      -5.5      2.826      6.808
REMARK  Name = 
REMARK  5 active torsions:
REMARK  status: ('A' for Active; 'I' for Inactive)
REMARK    1  A    between atoms: C_3  and  O_13
REMARK    2  A    between atoms: C_4  and  O_12
REMARK    3  A    between atoms: C_6  and  C_7
REMARK    4  A    between atoms: C_8  and  C_9
REMARK    5  A    between atoms: C_9  and  O_11
REMARK                            x       y       z     vdW  Elec       q    Type
REMARK                         _______ _______ _______ _____ _____    ______ ____
ROOT
ATOM      1  C   UNL     1      10.486   1.144  24.488  0.00  0.00    +0.000 A 
ATOM      2  C   UNL     1      10.380  -0.254  24.472  0.00  0.00    +0.000 A 
ATOM      3  C   UNL     1      10.071  -0.895  23.282  0.00  0.00    +0.000 A 
ATOM      4  C   UNL     1       9.861  -0.153  22.124  0.00  0.00    +0.000 A 
ATOM      5  C   UNL     1       9.964   1.233  22.131  0.00  0.00    +0.000 A 
ATOM      6  C   UNL     1      10.296   1.903  23.318  0.00  0.00    +0.000 A 
ENDROOT
BRANCH   6   7
ATOM      7  C   UNL     1      10.409   3.370  23.395  0.00  0.00    +0.000 C 
ATOM      8  C   UNL     1      11.573   4.040  23.421  0.00  0.00    +0.000 C 
BRANCH   8   9
ATOM      9  C   UNL     1      11.570   5.515  23.525  0.00  0.00    +0.000 C 
ATOM     10  O   UNL     1      12.480   6.179  23.991  0.00  0.00    +0.000 OA
BRANCH   9  11
ATOM     11  O   UNL     1      10.439   6.055  23.034  0.00  0.00    +0.000 OA
ATOM     12  H   UNL     1      10.474   6.336  22.102  0.00  0.00    +0.000 HD
ENDBRANCH   9  11
ENDBRANCH   8   9
ENDBRANCH   6   7
BRANCH   4  13
ATOM     13  O   UNL     1       9.548  -0.787  20.954  0.00  0.00    +0.000 OA
ATOM     14  H   UNL     1       8.793  -0.280  20.595  0.00  0.00    +0.000 HD
ENDBRANCH   4  13
BRANCH   3  15
ATOM     15  O   UNL     1       9.957  -2.254  23.196  0.00  0.00    +0.000 OA
ATOM     16  H   UNL     1       9.880  -2.494  22.257  0.00  0.00    +0.000 HD
ENDBRANCH   3  15
TORSDOF 5
ENDMDL
MODEL 3
REMARK VINA RESULT:      -5.4      0.873      1.907
REMARK  Name = 
REMARK  5 active torsions:
REMARK  status: ('A' for Active; 'I' for Inactive)
REMARK    1  A    between atoms: C_3  and  O_13
REMARK    2  A    between atoms: C_4  and  O_12
REMARK    3  A    between atoms: C_6  and  C_7
REMARK    4  A    between atoms: C_8  and  C_9
REMARK    5  A    between atoms: C_9  and  O_11
REMARK                            x       y       z     vdW  Elec       q    Type
REMARK                         _______ _______ _______ _____ _____    ______ ____
ROOT
ATOM      1  C   UNL     1      10.537  -0.151  24.522  0.00  0.00    +0.000 A 
ATOM      2  C   UNL     1      10.694   1.239  24.439  0.00  0.00    +0.000 A 
ATOM      3  C   UNL     1      10.244   1.904  23.308  0.00  0.00    +0.000 A 
ATOM      4  C   UNL     1       9.652   1.191  22.269  0.00  0.00    +0.000 A 
ATOM      5  C   UNL     1       9.493  -0.187  22.344  0.00  0.00    +0.000 A 
ATOM      6  C   UNL     1       9.921  -0.879  23.486  0.00  0.00    +0.000 A 
ENDROOT
BRANCH   6   7
ATOM      7  C   UNL     1       9.793  -2.341  23.623  0.00  0.00    +0.000 C 
ATOM      8  C   UNL     1       9.164  -2.954  24.639  0.00  0.00    +0.000 C 
BRANCH   8   9
ATOM      9  C   UNL     1       9.116  -4.431  24.690  0.00  0.00    +0.000 C 
ATOM     10  O   UNL     1       8.108  -5.098  24.536  0.00  0.00    +0.000 OA
BRANCH   9  11
ATOM     11  O   UNL     1      10.329  -4.969  24.921  0.00  0.00    +0.000 OA
ATOM     12  H   UNL     1      11.014  -4.351  25.234  0.00  0.00    +0.000 HD
ENDBRANCH   9  11
ENDBRANCH   8   9
ENDBRANCH   6   7
BRANCH   4  13
ATOM     13  O   UNL     1       9.217   1.848  21.153  0.00  0.00    +0.000 OA
ATOM     14  H   UNL     1       9.832   2.603  21.057  0.00  0.00    +0.000 HD
ENDBRANCH   4  13
BRANCH   3  15
ATOM     15  O   UNL     1      10.361   3.258  23.164  0.00  0.00    +0.000 OA
ATOM     16  H   UNL     1      10.522   3.645  24.041  0.00  0.00    +0.000 HD
ENDBRANCH   3  15
TORSDOF 5
ENDMDL
MODEL 4
REMARK VINA RESULT:      -5.3      2.955      6.563
REMARK  Name = 
REMARK  5 active torsions:
REMARK  status: ('A' for Active; 'I' for Inactive)
REMARK    1  A    between atoms: C_3  and  O_13
REMARK    2  A    between atoms: C_4  and  O_12
REMARK    3  A    between atoms: C_6  and  C_7
REMARK    4  A    between atoms: C_8  and  C_9
REMARK    5  A    between atoms: C_9  and  O_11
REMARK                            x       y       z     vdW  Elec       q    Type
REMARK                         _______ _______ _______ _____ _____    ______ ____
ROOT
ATOM      1  C   UNL     1       9.841   1.720  21.869  0.00  0.00    +0.000 A 
ATOM      2  C   UNL     1       9.523   0.407  21.496  0.00  0.00    +0.000 A 
ATOM      3  C   UNL     1       9.567  -0.597  22.451  0.00  0.00    +0.000 A 
ATOM      4  C   UNL     1       9.933  -0.299  23.761  0.00  0.00    +0.000 A 
ATOM      5  C   UNL     1      10.250   1.001  24.139  0.00  0.00    +0.000 A 
ATOM      6  C   UNL     1      10.192   2.037  23.195  0.00  0.00    +0.000 A 
ENDROOT
BRANCH   6   7
ATOM      7  C   UNL     1      10.527   3.432  23.529  0.00  0.00    +0.000 C 
ATOM      8  C   UNL     1      11.729   3.994  23.317  0.00  0.00    +0.000 C 
BRANCH   8   9
ATOM      9  C   UNL     1      11.965   5.398  23.714  0.00  0.00    +0.000 C 
ATOM     10  O   UNL     1      11.086   6.202  23.976  0.00  0.00    +0.000 OA
BRANCH   9  11
ATOM     11  O   UNL     1      13.277   5.697  23.762  0.00  0.00    +0.000 OA
ATOM     12  H   UNL     1      13.502   6.549  24.177  0.00  0.00    +0.000 HD
ENDBRANCH   9  11
ENDBRANCH   8   9
ENDBRANCH   6   7
BRANCH   4  13
ATOM     13  O   UNL     1       9.983  -1.291  24.698  0.00  0.00    +0.000 OA
ATOM     14  H   UNL     1       9.264  -1.074  25.325  0.00  0.00    +0.000 HD
ENDBRANCH   4  13
BRANCH   3  15
ATOM     15  O   UNL     1       9.265  -1.897  22.156  0.00  0.00    +0.000 OA
ATOM     16  H   UNL     1       8.602  -2.208  22.796  0.00  0.00    +0.000 HD
ENDBRANCH   3  15
TORSDOF 5
ENDMDL
MODEL 5
REMARK VINA RESULT:      -5.1      2.043      2.822
REMARK  Name = 
REMARK  5 active torsions:
REMARK  status: ('A' for Active; 'I' for Inactive)
REMARK    1  A    between atoms: C_3  and  O_13
REMARK    2  A    between atoms: C_4  and  O_12
REMARK    3  A    between atoms: C_6  and  C_7
REMARK    4  A    between atoms: C_8  and  C_9
REMARK    5  A    between atoms: C_9  and  O_11
REMARK                            x       y       z     vdW  Elec       q    Type
REMARK                         _______ _______ _______ _____ _____    ______ ____
ROOT
ATOM      1  C   UNL     1       9.820  -0.902  24.172  0.00  0.00    +0.000 A 
ATOM      2  C   UNL     1      10.450   0.303  24.517  0.00  0.00    +0.000 A 
ATOM      3  C   UNL     1      10.493   1.333  23.589  0.00  0.00    +0.000 A 
ATOM      4  C   UNL     1       9.921   1.163  22.331  0.00  0.00    +0.000 A 
ATOM      5  C   UNL     1       9.295  -0.028  21.982  0.00  0.00    +0.000 A 
ATOM      6  C   UNL     1       9.222  -1.076  22.910  0.00  0.00    +0.000 A 
ENDROOT
BRANCH   6   7
ATOM      7  C   UNL     1       8.583  -2.367  22.599  0.00  0.00    +0.000 C 
ATOM      8  C   UNL     1       7.273  -2.522  22.344  0.00  0.00    +0.000 C 
BRANCH   8   9
ATOM      9  C   UNL     1       6.732  -3.870  22.067  0.00  0.00    +0.000 C 
ATOM     10  O   UNL     1       5.717  -4.092  21.430  0.00  0.00    +0.000 OA
BRANCH   9  11
ATOM     11  O   UNL     1       7.499  -4.841  22.598  0.00  0.00    +0.000 OA
ATOM     12  H   UNL     1       7.786  -5.538  21.981  0.00  0.00    +0.000 HD
ENDBRANCH   9  11
ENDBRANCH   8   9
ENDBRANCH   6   7
BRANCH   4  13
ATOM     13  O   UNL     1       9.972   2.177  21.416  0.00  0.00    +0.000 OA
ATOM     14  H   UNL     1       9.589   1.793  20.603  0.00  0.00    +0.000 HD
ENDBRANCH   4  13
BRANCH   3  15
ATOM     15  O   UNL     1      11.087   2.533  23.861  0.00  0.00    +0.000 OA
ATOM     16  H   UNL     1      11.562   2.454  24.705  0.00  0.00    +0.000 HD
ENDBRANCH   3  15
TORSDOF 5
ENDMDL
MODEL 6
REMARK VINA RESULT:      -5.0      1.384      6.172
REMARK  Name = 
REMARK  5 active torsions:
REMARK  status: ('A' for Active; 'I' for Inactive)
REMARK    1  A    between atoms: C_3  and  O_13
REMARK    2  A    between atoms: C_4  and  O_12
REMARK    3  A    between atoms: C_6  and  C_7
REMARK    4  A    between atoms: C_8  and  C_9
REMARK    5  A    between atoms: C_9  and  O_11
REMARK                            x       y       z     vdW  Elec       q    Type
REMARK                         _______ _______ _______ _____ _____    ______ ____
ROOT
ATOM      1  C   UNL     1       7.743  -2.537  25.978  0.00  0.00    +0.000 A 
ATOM      2  C   UNL     1       7.488  -3.711  26.701  0.00  0.00    +0.000 A 
ATOM      3  C   UNL     1       8.246  -4.843  26.440  0.00  0.00    +0.000 A 
ATOM      4  C   UNL     1       9.241  -4.808  25.467  0.00  0.00    +0.000 A 
ATOM      5  C   UNL     1       9.499  -3.647  24.746  0.00  0.00    +0.000 A 
ATOM      6  C   UNL     1       8.759  -2.485  25.007  0.00  0.00    +0.000 A 
ENDROOT
BRANCH   6   7
ATOM      7  C   UNL     1       8.976  -1.226  24.270  0.00  0.00    +0.000 C 
ATOM      8  C   UNL     1      10.175  -0.647  24.096  0.00  0.00    +0.000 C 
BRANCH   8   9
ATOM      9  C   UNL     1      10.275   0.631  23.360  0.00  0.00    +0.000 C 
ATOM     10  O   UNL     1      10.124   0.752  22.157  0.00  0.00    +0.000 OA
BRANCH   9  11
ATOM     11  O   UNL     1      10.548   1.665  24.178  0.00  0.00    +0.000 OA
ATOM     12  H   UNL     1      11.355   1.578  24.716  0.00  0.00    +0.000 HD
ENDBRANCH   9  11
ENDBRANCH   8   9
ENDBRANCH   6   7
BRANCH   4  13
ATOM     13  O   UNL     1       9.981  -5.927  25.207  0.00  0.00    +0.000 OA
ATOM     14  H   UNL     1      10.630  -5.640  24.534  0.00  0.00    +0.000 HD
ENDBRANCH   4  13
BRANCH   3  15
ATOM     15  O   UNL     1       8.053  -6.018  27.110  0.00  0.00    +0.000 OA
ATOM     16  H   UNL     1       8.885  -6.521  27.088  0.00  0.00    +0.000 HD
ENDBRANCH   3  15
TORSDOF 5
ENDMDL
MODEL 7
REMARK VINA RESULT:      -4.9      3.210      6.695
REMARK  Name = 
REMARK  5 active torsions:
REMARK  status: ('A' for Active; 'I' for Inactive)
REMARK    1  A    between atoms: C_3  and  O_13
REMARK    2  A    between atoms: C_4  and  O_12
REMARK    3  A    between atoms: C_6  and  C_7
REMARK    4  A    between atoms: C_8  and  C_9
REMARK    5  A    between atoms: C_9  and  O_11
REMARK                            x       y       z     vdW  Elec       q    Type
REMARK                         _______ _______ _______ _____ _____    ______ ____
ROOT
ATOM      1  C   UNL     1       6.792  -4.884  24.985  0.00  0.00    +0.000 A 
ATOM      2  C   UNL     1       5.723  -5.792  24.995  0.00  0.00    +0.000 A 
ATOM      3  C   UNL     1       5.291  -6.340  23.797  0.00  0.00    +0.000 A 
ATOM      4  C   UNL     1       5.910  -5.983  22.602  0.00  0.00    +0.000 A 
ATOM      5  C   UNL     1       6.971  -5.084  22.584  0.00  0.00    +0.000 A 
ATOM      6  C   UNL     1       7.439  -4.533  23.786  0.00  0.00    +0.000 A 
ENDROOT
BRANCH   6   7
ATOM      7  C   UNL     1       8.550  -3.566  23.834  0.00  0.00    +0.000 C 
ATOM      8  C   UNL     1       8.705  -2.546  22.974  0.00  0.00    +0.000 C 
BRANCH   8   9
ATOM      9  C   UNL     1       9.873  -1.649  23.099  0.00  0.00    +0.000 C 
ATOM     10  O   UNL     1      10.149  -1.004  24.096  0.00  0.00    +0.000 OA
BRANCH   9  11
ATOM     11  O   UNL     1      10.617  -1.627  21.977  0.00  0.00    +0.000 OA
ATOM     12  H   UNL     1      10.140  -1.403  21.157  0.00  0.00    +0.000 HD
ENDBRANCH   9  11
ENDBRANCH   8   9
ENDBRANCH   6   7
BRANCH   4  13
ATOM     13  O   UNL     1       5.477  -6.518  21.422  0.00  0.00    +0.000 OA
ATOM     14  H   UNL     1       5.720  -5.854  20.747  0.00  0.00    +0.000 HD
ENDBRANCH   4  13
BRANCH   3  15
ATOM     15  O   UNL     1       4.258  -7.232  23.735  0.00  0.00    +0.000 OA
ATOM     16  H   UNL     1       4.388  -7.897  24.432  0.00  0.00    +0.000 HD
ENDBRANCH   3  15
TORSDOF 5
ENDMDL
MODEL 8
REMARK VINA RESULT:      -4.8      1.975      2.689
REMARK  Name = 
REMARK  5 active torsions:
REMARK  status: ('A' for Active; 'I' for Inactive)
REMARK    1  A    between atoms: C_3  and  O_13
REMARK    2  A    between atoms: C_4  and  O_12
REMARK    3  A    between atoms: C_6  and  C_7
REMARK    4  A    between atoms: C_8  and  C_9
REMARK    5  A    between atoms: C_9  and  O_11
REMARK                            x       y       z     vdW  Elec       q    Type
REMARK                         _______ _______ _______ _____ _____    ______ ____
ROOT
ATOM      1  C   UNL     1       8.945  -0.820  25.390  0.00  0.00    +0.000 A 
ATOM      2  C   UNL     1       9.244   0.234  24.515  0.00  0.00    +0.000 A 
ATOM      3  C   UNL     1       9.709  -0.056  23.241  0.00  0.00    +0.000 A 
ATOM      4  C   UNL     1       9.881  -1.380  22.846  0.00  0.00    +0.000 A 
ATOM      5  C   UNL     1       9.586  -2.430  23.707  0.00  0.00    +0.000 A 
ATOM      6  C   UNL     1       9.096  -2.162  24.993  0.00  0.00    +0.000 A 
ENDROOT
BRANCH   6   7
ATOM      7  C   UNL     1       8.776  -3.229  25.958  0.00  0.00    +0.000 C 
ATOM      8  C   UNL     1       7.587  -3.849  26.035  0.00  0.00    +0.000 C 
BRANCH   8   9
ATOM      9  C   UNL     1       7.366  -4.891  27.060  0.00  0.00    +0.000 C 
ATOM     10  O   UNL     1       6.577  -4.799  27.984  0.00  0.00    +0.000 OA
BRANCH   9  11
ATOM     11  O   UNL     1       8.138  -5.976  26.854  0.00  0.00    +0.000 OA
ATOM     12  H   UNL     1       7.721  -6.704  26.360  0.00  0.00    +0.000 HD
ENDBRANCH   9  11
ENDBRANCH   8   9
ENDBRANCH   6   7
BRANCH   4  13
ATOM     13  O   UNL     1      10.346  -1.662  21.592  0.00  0.00    +0.000 OA
ATOM     14  H   UNL     1      10.062  -2.583  21.427  0.00  0.00    +0.000 HD
ENDBRANCH   4  13
BRANCH   3  15
ATOM     15  O   UNL     1      10.016   0.922  22.338  0.00  0.00    +0.000 OA
ATOM     16  H   UNL     1       9.469   1.701  22.535  0.00  0.00    +0.000 HD
ENDBRANCH   3  15
TORSDOF 5
ENDMDL
MODEL 9
REMARK VINA RESULT:      -4.8      1.156      5.725
REMARK  Name = 
REMARK  5 active torsions:
REMARK  status: ('A' for Active; 'I' for Inactive)
REMARK    1  A    between atoms: C_3  and  O_13
REMARK    2  A    between atoms: C_4  and  O_12
REMARK    3  A    between atoms: C_6  and  C_7
REMARK    4  A    between atoms: C_8  and  C_9
REMARK    5  A    between atoms: C_9  and  O_11
REMARK                            x       y       z     vdW  Elec       q    Type
REMARK                         _______ _______ _______ _____ _____    ______ ____
ROOT
ATOM      1  C   UNL     1       8.042  -1.882  22.561  0.00  0.00    +0.000 A 
ATOM      2  C   UNL     1       7.391  -3.092  22.843  0.00  0.00    +0.000 A 
ATOM      3  C   UNL     1       8.015  -4.019  23.665  0.00  0.00    +0.000 A 
ATOM      4  C   UNL     1       9.274  -3.748  24.192  0.00  0.00    +0.000 A 
ATOM      5  C   UNL     1       9.926  -2.552  23.917  0.00  0.00    +0.000 A 
ATOM      6  C   UNL     1       9.306  -1.590  23.106  0.00  0.00    +0.000 A 
ENDROOT
BRANCH   6   7
ATOM      7  C   UNL     1       9.948  -0.307  22.766  0.00  0.00    +0.000 C 
ATOM      8  C   UNL     1       9.571   0.883  23.262  0.00  0.00    +0.000 C 
BRANCH   8   9
ATOM      9  C   UNL     1      10.270   2.113  22.833  0.00  0.00    +0.000 C 
ATOM     10  O   UNL     1      10.904   2.845  23.574  0.00  0.00    +0.000 OA
BRANCH   9  11
ATOM     11  O   UNL     1      10.135   2.337  21.512  0.00  0.00    +0.000 OA
ATOM     12  H   UNL     1      10.635   3.094  21.158  0.00  0.00    +0.000 HD
ENDBRANCH   9  11
ENDBRANCH   8   9
ENDBRANCH   6   7
BRANCH   4  13
ATOM     13  O   UNL     1       9.890  -4.667  24.995  0.00  0.00    +0.000 OA
ATOM     14  H   UNL     1       9.531  -5.528  24.702  0.00  0.00    +0.000 HD
ENDBRANCH   4  13
BRANCH   3  15
ATOM     15  O   UNL     1       7.436  -5.215  23.984  0.00  0.00    +0.000 OA
ATOM     16  H   UNL     1       6.843  -5.469  23.257  0.00  0.00    +0.000 HD
ENDBRANCH   3  15
TORSDOF 5
ENDMDL
