MODEL 1
REMARK VINA RESULT:      -8.8      0.000      0.000
REMARK  Name = 
REMARK  14 active torsions:
REMARK  status: ('A' for Active; 'I' for Inactive)
REMARK    1  A    between atoms: C_3  and  O_45
REMARK    2  A    between atoms: C_5  and  O_20
REMARK    3  A    between atoms: C_6  and  O_8
REMARK    4  A    between atoms: O_8  and  C_9
REMARK    5  A    between atoms: C_9  and  C_11
REMARK    6  A    between atoms: C_13  and  O_19
REMARK    7  A    between atoms: C_14  and  O_18
REMARK    8  A    between atoms: C_15  and  O_17
REMARK    9  A    between atoms: C_26  and  O_44
REMARK   10  A    between atoms: C_27  and  O_43
REMARK   11  A    between atoms: C_28  and  O_42
REMARK   12  A    between atoms: C_31  and  O_41
REMARK   13  A    between atoms: C_32  and  O_40
REMARK   14  A    between atoms: C_33  and  O_39
REMARK                            x       y       z     vdW  Elec       q    Type
REMARK                         _______ _______ _______ _____ _____    ______ ____
ROOT
ATOM      1  C   UNL     1       6.081   0.244  24.604  0.00  0.00    +0.000 C 
ATOM      2  C   UNL     1       6.193  -0.100  23.046  0.00  0.00    +0.000 C 
ATOM      3  C   UNL     1       7.005   0.964  22.307  0.00  0.00    +0.000 C 
ATOM      4  C   UNL     1       8.413   0.805  22.897  0.00  0.00    +0.000 C 
ATOM      5  C   UNL     1       9.036  -0.510  22.477  0.00  0.00    +0.000 C 
ATOM      6  C   UNL     1       8.114  -1.643  22.994  0.00  0.00    +0.000 C 
ATOM      7  O   UNL     1       6.716  -1.409  22.692  0.00  0.00    +0.000 OA
ATOM      8  O   UNL     1       9.219   1.944  22.680  0.00  0.00    +0.000 OA
ATOM      9  C   UNL     1      10.209   1.987  23.602  0.00  0.00    +0.000 C 
ATOM     10  O   UNL     1      10.687   1.080  24.251  0.00  0.00    +0.000 OA
ATOM     11  C   UNL     1      10.695   3.344  23.697  0.00  0.00    +0.000 A 
ATOM     12  C   UNL     1      12.104   3.416  23.531  0.00  0.00    +0.000 A 
ATOM     13  C   UNL     1      12.724   4.639  23.475  0.00  0.00    +0.000 A 
ATOM     14  C   UNL     1      11.945   5.771  23.599  0.00  0.00    +0.000 A 
ATOM     15  C   UNL     1      10.554   5.682  23.806  0.00  0.00    +0.000 A 
ATOM     16  C   UNL     1       9.839   4.450  23.877  0.00  0.00    +0.000 A 
ATOM     17  C   UNL     1       8.302   4.416  23.996  0.00  0.00    +0.000 A 
ATOM     18  C   UNL     1       7.555   5.196  23.063  0.00  0.00    +0.000 A 
ATOM     19  C   UNL     1       6.174   5.386  23.181  0.00  0.00    +0.000 A 
ATOM     20  C   UNL     1       5.488   4.916  24.278  0.00  0.00    +0.000 A 
ATOM     21  C   UNL     1       6.146   4.179  25.234  0.00  0.00    +0.000 A 
ATOM     22  C   UNL     1       7.477   3.755  24.995  0.00  0.00    +0.000 A 
ATOM     23  C   UNL     1       7.554   2.284  25.432  0.00  0.00    +0.000 C 
ATOM     24  O   UNL     1       8.439   1.741  26.033  0.00  0.00    +0.000 OA
ATOM     25  O   UNL     1       6.420   1.677  24.886  0.00  0.00    +0.000 OA
ENDROOT
BRANCH  19  26
ATOM     26  O   UNL     1       5.466   6.004  22.184  0.00  0.00    +0.000 OA
ATOM     27  H   UNL     1       5.777   6.933  22.227  0.00  0.00    +0.000 HD
ENDBRANCH  19  26
BRANCH   5  28
ATOM     28  O   UNL     1       9.266  -0.522  21.065  0.00  0.00    +0.000 OA
ATOM     29  H   UNL     1       8.948   0.314  20.687  0.00  0.00    +0.000 HD
ENDBRANCH   5  28
BRANCH  20  30
ATOM     30  O   UNL     1       4.128   5.009  24.344  0.00  0.00    +0.000 OA
ATOM     31  H   UNL     1       3.947   5.968  24.272  0.00  0.00    +0.000 HD
ENDBRANCH  20  30
BRANCH   3  32
ATOM     32  O   UNL     1       6.417   2.256  22.428  0.00  0.00    +0.000 OA
ATOM     33  H   UNL     1       6.835   2.738  23.165  0.00  0.00    +0.000 HD
ENDBRANCH   3  32
BRANCH  18  34
ATOM     34  O   UNL     1       8.079   5.764  21.918  0.00  0.00    +0.000 OA
ATOM     35  H   UNL     1       8.499   6.608  22.154  0.00  0.00    +0.000 HD
ENDBRANCH  18  34
BRANCH  15  36
ATOM     36  O   UNL     1       9.883   6.884  23.837  0.00  0.00    +0.000 OA
ATOM     37  H   UNL     1       8.930   6.650  23.800  0.00  0.00    +0.000 HD
ENDBRANCH  15  36
BRANCH  14  38
ATOM     38  O   UNL     1      12.526   7.008  23.477  0.00  0.00    +0.000 OA
ATOM     39  H   UNL     1      12.137   7.539  24.205  0.00  0.00    +0.000 HD
ENDBRANCH  14  38
BRANCH  13  40
ATOM     40  O   UNL     1      14.064   4.775  23.264  0.00  0.00    +0.000 OA
ATOM     41  H   UNL     1      14.439   3.896  23.063  0.00  0.00    +0.000 HD
ENDBRANCH  13  40
BRANCH   6  42
ATOM     42  O   UNL     1       8.582  -2.879  22.415  0.00  0.00    +0.000 OA
BRANCH  42  43
ATOM     43  C   UNL     1       7.693  -3.905  22.524  0.00  0.00    +0.000 C 
ATOM     44  O   UNL     1       6.955  -4.310  21.651  0.00  0.00    +0.000 OA
BRANCH  43  45
ATOM     45  C   UNL     1       7.729  -4.500  23.888  0.00  0.00    +0.000 A 
ATOM     46  C   UNL     1       6.515  -4.956  24.439  0.00  0.00    +0.000 A 
ATOM     47  C   UNL     1       6.491  -5.434  25.746  0.00  0.00    +0.000 A 
ATOM     48  C   UNL     1       7.655  -5.464  26.502  0.00  0.00    +0.000 A 
ATOM     49  C   UNL     1       8.861  -5.033  25.945  0.00  0.00    +0.000 A 
ATOM     50  C   UNL     1       8.912  -4.560  24.650  0.00  0.00    +0.000 A 
BRANCH  49  51
ATOM     51  O   UNL     1       9.992  -5.033  26.708  0.00  0.00    +0.000 OA
ATOM     52  H   UNL     1      10.588  -4.391  26.275  0.00  0.00    +0.000 HD
ENDBRANCH  49  51
BRANCH  48  53
ATOM     53  O   UNL     1       7.636  -5.884  27.799  0.00  0.00    +0.000 OA
ATOM     54  H   UNL     1       7.493  -6.850  27.736  0.00  0.00    +0.000 HD
ENDBRANCH  48  53
BRANCH  47  55
ATOM     55  O   UNL     1       5.337  -5.864  26.341  0.00  0.00    +0.000 OA
ATOM     56  H   UNL     1       4.660  -5.172  26.234  0.00  0.00    +0.000 HD
ENDBRANCH  47  55
ENDBRANCH  43  45
ENDBRANCH  42  43
ENDBRANCH   6  42
TORSDOF 14
ENDMDL
MODEL 2
REMARK VINA RESULT:      -8.4      1.910      3.938
REMARK  Name = 
REMARK  14 active torsions:
REMARK  status: ('A' for Active; 'I' for Inactive)
REMARK    1  A    between atoms: C_3  and  O_45
REMARK    2  A    between atoms: C_5  and  O_20
REMARK    3  A    between atoms: C_6  and  O_8
REMARK    4  A    between atoms: O_8  and  C_9
REMARK    5  A    between atoms: C_9  and  C_11
REMARK    6  A    between atoms: C_13  and  O_19
REMARK    7  A    between atoms: C_14  and  O_18
REMARK    8  A    between atoms: C_15  and  O_17
REMARK    9  A    between atoms: C_26  and  O_44
REMARK   10  A    between atoms: C_27  and  O_43
REMARK   11  A    between atoms: C_28  and  O_42
REMARK   12  A    between atoms: C_31  and  O_41
REMARK   13  A    between atoms: C_32  and  O_40
REMARK   14  A    between atoms: C_33  and  O_39
REMARK                            x       y       z     vdW  Elec       q    Type
REMARK                         _______ _______ _______ _____ _____    ______ ____
ROOT
ATOM      1  C   UNL     1       7.353   1.472  21.293  0.00  0.00    +0.000 C 
ATOM      2  C   UNL     1       8.849   1.016  21.622  0.00  0.00    +0.000 C 
ATOM      3  C   UNL     1       9.335   1.633  22.933  0.00  0.00    +0.000 C 
ATOM      4  C   UNL     1       8.432   0.976  23.986  0.00  0.00    +0.000 C 
ATOM      5  C   UNL     1       8.736  -0.500  24.124  0.00  0.00    +0.000 C 
ATOM      6  C   UNL     1       8.495  -1.152  22.739  0.00  0.00    +0.000 C 
ATOM      7  O   UNL     1       9.114  -0.413  21.656  0.00  0.00    +0.000 OA
ATOM      8  O   UNL     1       8.410   1.697  25.200  0.00  0.00    +0.000 OA
ATOM      9  C   UNL     1       7.276   1.410  25.883  0.00  0.00    +0.000 C 
ATOM     10  O   UNL     1       6.565   0.431  25.801  0.00  0.00    +0.000 OA
ATOM     11  C   UNL     1       7.021   2.475  26.824  0.00  0.00    +0.000 A 
ATOM     12  C   UNL     1       6.842   1.984  28.146  0.00  0.00    +0.000 A 
ATOM     13  C   UNL     1       6.706   2.865  29.190  0.00  0.00    +0.000 A 
ATOM     14  C   UNL     1       6.732   4.216  28.911  0.00  0.00    +0.000 A 
ATOM     15  C   UNL     1       6.867   4.687  27.589  0.00  0.00    +0.000 A 
ATOM     16  C   UNL     1       7.012   3.835  26.454  0.00  0.00    +0.000 A 
ATOM     17  C   UNL     1       7.265   4.409  25.045  0.00  0.00    +0.000 A 
ATOM     18  C   UNL     1       8.322   5.358  24.904  0.00  0.00    +0.000 A 
ATOM     19  C   UNL     1       8.531   6.076  23.721  0.00  0.00    +0.000 A 
ATOM     20  C   UNL     1       7.647   5.978  22.670  0.00  0.00    +0.000 A 
ATOM     21  C   UNL     1       6.588   5.104  22.744  0.00  0.00    +0.000 A 
ATOM     22  C   UNL     1       6.516   4.183  23.819  0.00  0.00    +0.000 A 
ATOM     23  C   UNL     1       6.125   2.829  23.209  0.00  0.00    +0.000 C 
ATOM     24  O   UNL     1       5.350   2.023  23.644  0.00  0.00    +0.000 OA
ATOM     25  O   UNL     1       6.947   2.676  22.090  0.00  0.00    +0.000 OA
ENDROOT
BRANCH  19  26
ATOM     26  O   UNL     1       9.645   6.857  23.566  0.00  0.00    +0.000 OA
ATOM     27  H   UNL     1       9.686   7.365  24.403  0.00  0.00    +0.000 HD
ENDBRANCH  19  26
BRANCH   5  28
ATOM     28  O   UNL     1      10.052  -0.689  24.654  0.00  0.00    +0.000 OA
ATOM     29  H   UNL     1       9.988  -1.195  25.481  0.00  0.00    +0.000 HD
ENDBRANCH   5  28
BRANCH  20  30
ATOM     30  O   UNL     1       7.905   6.596  21.482  0.00  0.00    +0.000 OA
ATOM     31  H   UNL     1       8.444   7.375  21.725  0.00  0.00    +0.000 HD
ENDBRANCH  20  30
BRANCH   3  32
ATOM     32  O   UNL     1       9.313   3.057  22.887  0.00  0.00    +0.000 OA
ATOM     33  H   UNL     1       8.397   3.373  22.998  0.00  0.00    +0.000 HD
ENDBRANCH   3  32
BRANCH  18  34
ATOM     34  O   UNL     1       9.288   5.605  25.859  0.00  0.00    +0.000 OA
ATOM     35  H   UNL     1      10.118   5.185  25.577  0.00  0.00    +0.000 HD
ENDBRANCH  18  34
BRANCH  15  36
ATOM     36  O   UNL     1       6.956   6.054  27.456  0.00  0.00    +0.000 OA
ATOM     37  H   UNL     1       7.886   6.229  27.197  0.00  0.00    +0.000 HD
ENDBRANCH  15  36
BRANCH  14  38
ATOM     38  O   UNL     1       6.669   5.120  29.941  0.00  0.00    +0.000 OA
ATOM     39  H   UNL     1       5.967   4.773  30.533  0.00  0.00    +0.000 HD
ENDBRANCH  14  38
BRANCH  13  40
ATOM     40  O   UNL     1       6.585   2.457  30.485  0.00  0.00    +0.000 OA
ATOM     41  H   UNL     1       6.896   1.533  30.552  0.00  0.00    +0.000 HD
ENDBRANCH  13  40
BRANCH   6  42
ATOM     42  O   UNL     1       8.988  -2.506  22.807  0.00  0.00    +0.000 OA
BRANCH  42  43
ATOM     43  C   UNL     1       8.005  -3.448  22.789  0.00  0.00    +0.000 C 
ATOM     44  O   UNL     1       7.253  -3.683  21.866  0.00  0.00    +0.000 OA
BRANCH  43  45
ATOM     45  C   UNL     1       7.951  -4.190  24.079  0.00  0.00    +0.000 A 
ATOM     46  C   UNL     1       6.746  -4.838  24.415  0.00  0.00    +0.000 A 
ATOM     47  C   UNL     1       6.626  -5.464  25.653  0.00  0.00    +0.000 A 
ATOM     48  C   UNL     1       7.685  -5.452  26.550  0.00  0.00    +0.000 A 
ATOM     49  C   UNL     1       8.886  -4.828  26.203  0.00  0.00    +0.000 A 
ATOM     50  C   UNL     1       9.032  -4.205  24.981  0.00  0.00    +0.000 A 
BRANCH  49  51
ATOM     51  O   UNL     1       9.908  -4.790  27.106  0.00  0.00    +0.000 OA
ATOM     52  H   UNL     1      10.097  -3.840  27.233  0.00  0.00    +0.000 HD
ENDBRANCH  49  51
BRANCH  48  53
ATOM     53  O   UNL     1       7.564  -6.018  27.784  0.00  0.00    +0.000 OA
ATOM     54  H   UNL     1       8.489  -6.161  28.072  0.00  0.00    +0.000 HD
ENDBRANCH  48  53
BRANCH  47  55
ATOM     55  O   UNL     1       5.472  -6.086  26.043  0.00  0.00    +0.000 OA
ATOM     56  H   UNL     1       4.756  -5.425  26.055  0.00  0.00    +0.000 HD
ENDBRANCH  47  55
ENDBRANCH  43  45
ENDBRANCH  42  43
ENDBRANCH   6  42
TORSDOF 14
ENDMDL
MODEL 3
REMARK VINA RESULT:      -8.4      0.963      1.865
REMARK  Name = 
REMARK  14 active torsions:
REMARK  status: ('A' for Active; 'I' for Inactive)
REMARK    1  A    between atoms: C_3  and  O_45
REMARK    2  A    between atoms: C_5  and  O_20
REMARK    3  A    between atoms: C_6  and  O_8
REMARK    4  A    between atoms: O_8  and  C_9
REMARK    5  A    between atoms: C_9  and  C_11
REMARK    6  A    between atoms: C_13  and  O_19
REMARK    7  A    between atoms: C_14  and  O_18
REMARK    8  A    between atoms: C_15  and  O_17
REMARK    9  A    between atoms: C_26  and  O_44
REMARK   10  A    between atoms: C_27  and  O_43
REMARK   11  A    between atoms: C_28  and  O_42
REMARK   12  A    between atoms: C_31  and  O_41
REMARK   13  A    between atoms: C_32  and  O_40
REMARK   14  A    between atoms: C_33  and  O_39
REMARK                            x       y       z     vdW  Elec       q    Type
REMARK                         _______ _______ _______ _____ _____    ______ ____
ROOT
ATOM      1  C   UNL     1       6.104   0.259  24.738  0.00  0.00    +0.000 C 
ATOM      2  C   UNL     1       6.235  -0.148  23.198  0.00  0.00    +0.000 C 
ATOM      3  C   UNL     1       7.043   0.892  22.422  0.00  0.00    +0.000 C 
ATOM      4  C   UNL     1       8.447   0.772  23.031  0.00  0.00    +0.000 C 
ATOM      5  C   UNL     1       9.087  -0.552  22.673  0.00  0.00    +0.000 C 
ATOM      6  C   UNL     1       8.172  -1.672  23.228  0.00  0.00    +0.000 C 
ATOM      7  O   UNL     1       6.774  -1.466  22.904  0.00  0.00    +0.000 OA
ATOM      8  O   UNL     1       9.243   1.909  22.774  0.00  0.00    +0.000 OA
ATOM      9  C   UNL     1      10.224   2.002  23.703  0.00  0.00    +0.000 C 
ATOM     10  O   UNL     1      10.704   1.128  24.393  0.00  0.00    +0.000 OA
ATOM     11  C   UNL     1      10.695   3.366  23.745  0.00  0.00    +0.000 A 
ATOM     12  C   UNL     1      12.105   3.447  23.589  0.00  0.00    +0.000 A 
ATOM     13  C   UNL     1      12.713   4.673  23.487  0.00  0.00    +0.000 A 
ATOM     14  C   UNL     1      11.922   5.801  23.556  0.00  0.00    +0.000 A 
ATOM     15  C   UNL     1      10.529   5.706  23.753  0.00  0.00    +0.000 A 
ATOM     16  C   UNL     1       9.827   4.470  23.870  0.00  0.00    +0.000 A 
ATOM     17  C   UNL     1       8.289   4.426  23.976  0.00  0.00    +0.000 A 
ATOM     18  C   UNL     1       7.543   5.158  23.003  0.00  0.00    +0.000 A 
ATOM     19  C   UNL     1       6.159   5.338  23.101  0.00  0.00    +0.000 A 
ATOM     20  C   UNL     1       5.467   4.907  24.210  0.00  0.00    +0.000 A 
ATOM     21  C   UNL     1       6.123   4.218  25.202  0.00  0.00    +0.000 A 
ATOM     22  C   UNL     1       7.461   3.798  24.994  0.00  0.00    +0.000 A 
ATOM     23  C   UNL     1       7.548   2.348  25.494  0.00  0.00    +0.000 C 
ATOM     24  O   UNL     1       8.433   1.840  26.125  0.00  0.00    +0.000 OA
ATOM     25  O   UNL     1       6.426   1.707  24.963  0.00  0.00    +0.000 OA
ENDROOT
BRANCH  19  26
ATOM     26  O   UNL     1       5.455   5.906  22.072  0.00  0.00    +0.000 OA
ATOM     27  H   UNL     1       4.613   6.178  22.495  0.00  0.00    +0.000 HD
ENDBRANCH  19  26
BRANCH   5  28
ATOM     28  O   UNL     1       9.331  -0.621  21.265  0.00  0.00    +0.000 OA
ATOM     29  H   UNL     1       8.894   0.131  20.832  0.00  0.00    +0.000 HD
ENDBRANCH   5  28
BRANCH  20  30
ATOM     30  O   UNL     1       4.106   4.989  24.259  0.00  0.00    +0.000 OA
ATOM     31  H   UNL     1       3.923   5.946  24.352  0.00  0.00    +0.000 HD
ENDBRANCH  20  30
BRANCH   3  32
ATOM     32  O   UNL     1       6.441   2.182  22.483  0.00  0.00    +0.000 OA
ATOM     33  H   UNL     1       7.104   2.863  22.268  0.00  0.00    +0.000 HD
ENDBRANCH   3  32
BRANCH  18  34
ATOM     34  O   UNL     1       8.072   5.682  21.840  0.00  0.00    +0.000 OA
ATOM     35  H   UNL     1       7.576   5.324  21.085  0.00  0.00    +0.000 HD
ENDBRANCH  18  34
BRANCH  15  36
ATOM     36  O   UNL     1       9.846   6.900  23.727  0.00  0.00    +0.000 OA
ATOM     37  H   UNL     1      10.169   7.366  22.925  0.00  0.00    +0.000 HD
ENDBRANCH  15  36
BRANCH  14  38
ATOM     38  O   UNL     1      12.491   7.037  23.387  0.00  0.00    +0.000 OA
ATOM     39  H   UNL     1      12.578   7.397  24.296  0.00  0.00    +0.000 HD
ENDBRANCH  14  38
BRANCH  13  40
ATOM     40  O   UNL     1      14.053   4.814  23.283  0.00  0.00    +0.000 OA
ATOM     41  H   UNL     1      14.502   4.825  24.151  0.00  0.00    +0.000 HD
ENDBRANCH  13  40
BRANCH   6  42
ATOM     42  O   UNL     1       8.658  -2.926  22.706  0.00  0.00    +0.000 OA
BRANCH  42  43
ATOM     43  C   UNL     1       8.745  -3.911  23.643  0.00  0.00    +0.000 C 
ATOM     44  O   UNL     1       9.670  -4.098  24.404  0.00  0.00    +0.000 OA
BRANCH  43  45
ATOM     45  C   UNL     1       7.528  -4.770  23.629  0.00  0.00    +0.000 A 
ATOM     46  C   UNL     1       7.050  -5.213  22.380  0.00  0.00    +0.000 A 
ATOM     47  C   UNL     1       5.865  -5.941  22.318  0.00  0.00    +0.000 A 
ATOM     48  C   UNL     1       5.159  -6.231  23.477  0.00  0.00    +0.000 A 
ATOM     49  C   UNL     1       5.649  -5.809  24.716  0.00  0.00    +0.000 A 
ATOM     50  C   UNL     1       6.824  -5.091  24.805  0.00  0.00    +0.000 A 
BRANCH  49  51
ATOM     51  O   UNL     1       4.928  -6.067  25.846  0.00  0.00    +0.000 OA
ATOM     52  H   UNL     1       4.549  -5.204  26.105  0.00  0.00    +0.000 HD
ENDBRANCH  49  51
BRANCH  48  53
ATOM     53  O   UNL     1       3.973  -6.900  23.426  0.00  0.00    +0.000 OA
ATOM     54  H   UNL     1       3.774  -6.960  22.470  0.00  0.00    +0.000 HD
ENDBRANCH  48  53
BRANCH  47  55
ATOM     55  O   UNL     1       5.340  -6.374  21.131  0.00  0.00    +0.000 OA
ATOM     56  H   UNL     1       4.966  -5.607  20.663  0.00  0.00    +0.000 HD
ENDBRANCH  47  55
ENDBRANCH  43  45
ENDBRANCH  42  43
ENDBRANCH   6  42
TORSDOF 14
ENDMDL
MODEL 4
REMARK VINA RESULT:      -8.3      2.984     10.355
REMARK  Name = 
REMARK  14 active torsions:
REMARK  status: ('A' for Active; 'I' for Inactive)
REMARK    1  A    between atoms: C_3  and  O_45
REMARK    2  A    between atoms: C_5  and  O_20
REMARK    3  A    between atoms: C_6  and  O_8
REMARK    4  A    between atoms: O_8  and  C_9
REMARK    5  A    between atoms: C_9  and  C_11
REMARK    6  A    between atoms: C_13  and  O_19
REMARK    7  A    between atoms: C_14  and  O_18
REMARK    8  A    between atoms: C_15  and  O_17
REMARK    9  A    between atoms: C_26  and  O_44
REMARK   10  A    between atoms: C_27  and  O_43
REMARK   11  A    between atoms: C_28  and  O_42
REMARK   12  A    between atoms: C_31  and  O_41
REMARK   13  A    between atoms: C_32  and  O_40
REMARK   14  A    between atoms: C_33  and  O_39
REMARK                            x       y       z     vdW  Elec       q    Type
REMARK                         _______ _______ _______ _____ _____    ______ ____
ROOT
ATOM      1  C   UNL     1       6.751  -1.732  26.195  0.00  0.00    +0.000 C 
ATOM      2  C   UNL     1       7.969  -2.611  25.647  0.00  0.00    +0.000 C 
ATOM      3  C   UNL     1       7.560  -4.076  25.488  0.00  0.00    +0.000 C 
ATOM      4  C   UNL     1       6.511  -4.028  24.368  0.00  0.00    +0.000 C 
ATOM      5  C   UNL     1       7.144  -3.661  23.042  0.00  0.00    +0.000 C 
ATOM      6  C   UNL     1       7.800  -2.269  23.213  0.00  0.00    +0.000 C 
ATOM      7  O   UNL     1       8.603  -2.171  24.416  0.00  0.00    +0.000 OA
ATOM      8  O   UNL     1       5.698  -5.181  24.343  0.00  0.00    +0.000 OA
ATOM      9  C   UNL     1       4.524  -4.901  23.730  0.00  0.00    +0.000 C 
ATOM     10  O   UNL     1       4.271  -4.022  22.934  0.00  0.00    +0.000 OA
ATOM     11  C   UNL     1       3.543  -5.879  24.139  0.00  0.00    +0.000 A 
ATOM     12  C   UNL     1       2.915  -6.500  23.026  0.00  0.00    +0.000 A 
ATOM     13  C   UNL     1       2.040  -7.538  23.225  0.00  0.00    +0.000 A 
ATOM     14  C   UNL     1       1.786  -7.936  24.522  0.00  0.00    +0.000 A 
ATOM     15  C   UNL     1       2.383  -7.282  25.618  0.00  0.00    +0.000 A 
ATOM     16  C   UNL     1       3.300  -6.197  25.491  0.00  0.00    +0.000 A 
ATOM     17  C   UNL     1       4.006  -5.592  26.722  0.00  0.00    +0.000 A 
ATOM     18  C   UNL     1       4.659  -6.495  27.613  0.00  0.00    +0.000 A 
ATOM     19  C   UNL     1       5.177  -6.087  28.847  0.00  0.00    +0.000 A 
ATOM     20  C   UNL     1       4.976  -4.805  29.308  0.00  0.00    +0.000 A 
ATOM     21  C   UNL     1       4.330  -3.885  28.516  0.00  0.00    +0.000 A 
ATOM     22  C   UNL     1       4.039  -4.207  27.167  0.00  0.00    +0.000 A 
ATOM     23  C   UNL     1       4.415  -2.975  26.331  0.00  0.00    +0.000 C 
ATOM     24  O   UNL     1       3.812  -2.499  25.410  0.00  0.00    +0.000 OA
ATOM     25  O   UNL     1       5.673  -2.583  26.797  0.00  0.00    +0.000 OA
ENDROOT
BRANCH  19  26
ATOM     26  O   UNL     1       5.936  -6.941  29.603  0.00  0.00    +0.000 OA
ATOM     27  H   UNL     1       6.156  -6.409  30.397  0.00  0.00    +0.000 HD
ENDBRANCH  19  26
BRANCH   5  28
ATOM     28  O   UNL     1       8.036  -4.696  22.615  0.00  0.00    +0.000 OA
ATOM     29  H   UNL     1       7.516  -5.482  22.380  0.00  0.00    +0.000 HD
ENDBRANCH   5  28
BRANCH  20  30
ATOM     30  O   UNL     1       5.568  -4.377  30.460  0.00  0.00    +0.000 OA
ATOM     31  H   UNL     1       5.460  -3.404  30.441  0.00  0.00    +0.000 HD
ENDBRANCH  20  30
BRANCH   3  32
ATOM     32  O   UNL     1       7.133  -4.642  26.723  0.00  0.00    +0.000 OA
ATOM     33  H   UNL     1       7.618  -4.224  27.459  0.00  0.00    +0.000 HD
ENDBRANCH   3  32
BRANCH  18  34
ATOM     34  O   UNL     1       4.929  -7.820  27.330  0.00  0.00    +0.000 OA
ATOM     35  H   UNL     1       5.069  -7.910  26.372  0.00  0.00    +0.000 HD
ENDBRANCH  18  34
BRANCH  15  36
ATOM     36  O   UNL     1       2.106  -7.825  26.852  0.00  0.00    +0.000 OA
ATOM     37  H   UNL     1       2.961  -8.183  27.175  0.00  0.00    +0.000 HD
ENDBRANCH  15  36
BRANCH  14  38
ATOM     38  O   UNL     1       0.970  -9.015  24.749  0.00  0.00    +0.000 OA
ATOM     39  H   UNL     1       1.030  -9.549  23.927  0.00  0.00    +0.000 HD
ENDBRANCH  14  38
BRANCH  13  40
ATOM     40  O   UNL     1       1.448  -8.208  22.197  0.00  0.00    +0.000 OA
ATOM     41  H   UNL     1       1.478  -7.645  21.398  0.00  0.00    +0.000 HD
ENDBRANCH  13  40
BRANCH   6  42
ATOM     42  O   UNL     1       8.585  -2.013  22.029  0.00  0.00    +0.000 OA
BRANCH  42  43
ATOM     43  C   UNL     1       9.737  -1.329  22.274  0.00  0.00    +0.000 C 
ATOM     44  O   UNL     1      10.839  -1.812  22.431  0.00  0.00    +0.000 OA
BRANCH  43  45
ATOM     45  C   UNL     1       9.487   0.138  22.331  0.00  0.00    +0.000 A 
ATOM     46  C   UNL     1      10.468   0.950  22.933  0.00  0.00    +0.000 A 
ATOM     47  C   UNL     1      10.231   2.312  23.088  0.00  0.00    +0.000 A 
ATOM     48  C   UNL     1       9.037   2.869  22.652  0.00  0.00    +0.000 A 
ATOM     49  C   UNL     1       8.076   2.065  22.035  0.00  0.00    +0.000 A 
ATOM     50  C   UNL     1       8.290   0.713  21.865  0.00  0.00    +0.000 A 
BRANCH  49  51
ATOM     51  O   UNL     1       6.891   2.616  21.643  0.00  0.00    +0.000 OA
ATOM     52  H   UNL     1       6.386   2.741  22.470  0.00  0.00    +0.000 HD
ENDBRANCH  49  51
BRANCH  48  53
ATOM     53  O   UNL     1       8.771   4.193  22.842  0.00  0.00    +0.000 OA
ATOM     54  H   UNL     1       9.418   4.651  22.267  0.00  0.00    +0.000 HD
ENDBRANCH  48  53
BRANCH  47  55
ATOM     55  O   UNL     1      11.137   3.143  23.689  0.00  0.00    +0.000 OA
ATOM     56  H   UNL     1      11.842   2.598  24.079  0.00  0.00    +0.000 HD
ENDBRANCH  47  55
ENDBRANCH  43  45
ENDBRANCH  42  43
ENDBRANCH   6  42
TORSDOF 14
ENDMDL
MODEL 5
REMARK VINA RESULT:      -8.1      1.965      4.819
REMARK  Name = 
REMARK  14 active torsions:
REMARK  status: ('A' for Active; 'I' for Inactive)
REMARK    1  A    between atoms: C_3  and  O_45
REMARK    2  A    between atoms: C_5  and  O_20
REMARK    3  A    between atoms: C_6  and  O_8
REMARK    4  A    between atoms: O_8  and  C_9
REMARK    5  A    between atoms: C_9  and  C_11
REMARK    6  A    between atoms: C_13  and  O_19
REMARK    7  A    between atoms: C_14  and  O_18
REMARK    8  A    between atoms: C_15  and  O_17
REMARK    9  A    between atoms: C_26  and  O_44
REMARK   10  A    between atoms: C_27  and  O_43
REMARK   11  A    between atoms: C_28  and  O_42
REMARK   12  A    between atoms: C_31  and  O_41
REMARK   13  A    between atoms: C_32  and  O_40
REMARK   14  A    between atoms: C_33  and  O_39
REMARK                            x       y       z     vdW  Elec       q    Type
REMARK                         _______ _______ _______ _____ _____    ______ ____
ROOT
ATOM      1  C   UNL     1       9.087   1.347  21.862  0.00  0.00    +0.000 C 
ATOM      2  C   UNL     1       9.917   0.643  23.033  0.00  0.00    +0.000 C 
ATOM      3  C   UNL     1       9.468   1.149  24.405  0.00  0.00    +0.000 C 
ATOM      4  C   UNL     1       8.026   0.634  24.514  0.00  0.00    +0.000 C 
ATOM      5  C   UNL     1       7.992  -0.875  24.634  0.00  0.00    +0.000 C 
ATOM      6  C   UNL     1       8.667  -1.454  23.365  0.00  0.00    +0.000 C 
ATOM      7  O   UNL     1       9.928  -0.810  23.057  0.00  0.00    +0.000 OA
ATOM      8  O   UNL     1       7.280   1.328  25.491  0.00  0.00    +0.000 OA
ATOM      9  C   UNL     1       5.958   1.221  25.220  0.00  0.00    +0.000 C 
ATOM     10  O   UNL     1       5.379   0.376  24.571  0.00  0.00    +0.000 OA
ATOM     11  C   UNL     1       5.261   2.298  25.883  0.00  0.00    +0.000 A 
ATOM     12  C   UNL     1       4.192   1.821  26.689  0.00  0.00    +0.000 A 
ATOM     13  C   UNL     1       3.493   2.694  27.485  0.00  0.00    +0.000 A 
ATOM     14  C   UNL     1       3.850   4.026  27.461  0.00  0.00    +0.000 A 
ATOM     15  C   UNL     1       4.886   4.491  26.625  0.00  0.00    +0.000 A 
ATOM     16  C   UNL     1       5.654   3.646  25.770  0.00  0.00    +0.000 A 
ATOM     17  C   UNL     1       6.846   4.194  24.959  0.00  0.00    +0.000 A 
ATOM     18  C   UNL     1       7.825   4.956  25.665  0.00  0.00    +0.000 A 
ATOM     19  C   UNL     1       8.849   5.650  25.010  0.00  0.00    +0.000 A 
ATOM     20  C   UNL     1       8.890   5.718  23.636  0.00  0.00    +0.000 A 
ATOM     21  C   UNL     1       7.963   5.031  22.888  0.00  0.00    +0.000 A 
ATOM     22  C   UNL     1       7.089   4.117  23.526  0.00  0.00    +0.000 A 
ATOM     23  C   UNL     1       7.056   2.856  22.649  0.00  0.00    +0.000 C 
ATOM     24  O   UNL     1       6.105   2.183  22.364  0.00  0.00    +0.000 OA
ATOM     25  O   UNL     1       8.392   2.588  22.338  0.00  0.00    +0.000 OA
ENDROOT
BRANCH  19  26
ATOM     26  O   UNL     1       9.861   6.237  25.723  0.00  0.00    +0.000 OA
ATOM     27  H   UNL     1      10.180   6.946  25.125  0.00  0.00    +0.000 HD
ENDBRANCH  19  26
BRANCH   5  28
ATOM     28  O   UNL     1       8.585  -1.289  25.869  0.00  0.00    +0.000 OA
ATOM     29  H   UNL     1       8.224  -0.745  26.589  0.00  0.00    +0.000 HD
ENDBRANCH   5  28
BRANCH  20  30
ATOM     30  O   UNL     1       9.943   6.304  22.997  0.00  0.00    +0.000 OA
ATOM     31  H   UNL     1       9.567   6.624  22.152  0.00  0.00    +0.000 HD
ENDBRANCH  20  30
BRANCH   3  32
ATOM     32  O   UNL     1       9.642   2.557  24.531  0.00  0.00    +0.000 OA
ATOM     33  H   UNL     1       8.826   3.014  24.254  0.00  0.00    +0.000 HD
ENDBRANCH   3  32
BRANCH  18  34
ATOM     34  O   UNL     1       7.925   5.023  27.041  0.00  0.00    +0.000 OA
ATOM     35  H   UNL     1       8.856   5.171  27.277  0.00  0.00    +0.000 HD
ENDBRANCH  18  34
BRANCH  15  36
ATOM     36  O   UNL     1       5.193   5.826  26.752  0.00  0.00    +0.000 OA
ATOM     37  H   UNL     1       6.091   5.923  26.368  0.00  0.00    +0.000 HD
ENDBRANCH  15  36
BRANCH  14  38
ATOM     38  O   UNL     1       3.217   4.911  28.297  0.00  0.00    +0.000 OA
ATOM     39  H   UNL     1       3.007   4.386  29.100  0.00  0.00    +0.000 HD
ENDBRANCH  14  38
BRANCH  13  40
ATOM     40  O   UNL     1       2.494   2.290  28.319  0.00  0.00    +0.000 OA
ATOM     41  H   UNL     1       1.845   1.773  27.802  0.00  0.00    +0.000 HD
ENDBRANCH  13  40
BRANCH   6  42
ATOM     42  O   UNL     1       8.832  -2.872  23.572  0.00  0.00    +0.000 OA
BRANCH  42  43
ATOM     43  C   UNL     1       7.797  -3.619  23.096  0.00  0.00    +0.000 C 
ATOM     44  O   UNL     1       7.355  -3.595  21.967  0.00  0.00    +0.000 OA
BRANCH  43  45
ATOM     45  C   UNL     1       7.246  -4.506  24.158  0.00  0.00    +0.000 A 
ATOM     46  C   UNL     1       5.951  -5.030  23.970  0.00  0.00    +0.000 A 
ATOM     47  C   UNL     1       5.365  -5.788  24.979  0.00  0.00    +0.000 A 
ATOM     48  C   UNL     1       6.050  -6.029  26.162  0.00  0.00    +0.000 A 
ATOM     49  C   UNL     1       7.342  -5.528  26.335  0.00  0.00    +0.000 A 
ATOM     50  C   UNL     1       7.947  -4.778  25.347  0.00  0.00    +0.000 A 
BRANCH  49  51
ATOM     51  O   UNL     1       7.992  -5.739  27.516  0.00  0.00    +0.000 OA
ATOM     52  H   UNL     1       7.376  -6.278  28.050  0.00  0.00    +0.000 HD
ENDBRANCH  49  51
BRANCH  48  53
ATOM     53  O   UNL     1       5.468  -6.728  27.178  0.00  0.00    +0.000 OA
ATOM     54  H   UNL     1       5.409  -7.643  26.835  0.00  0.00    +0.000 HD
ENDBRANCH  48  53
BRANCH  47  55
ATOM     55  O   UNL     1       4.101  -6.299  24.863  0.00  0.00    +0.000 OA
ATOM     56  H   UNL     1       4.131  -7.053  24.248  0.00  0.00    +0.000 HD
ENDBRANCH  47  55
ENDBRANCH  43  45
ENDBRANCH  42  43
ENDBRANCH   6  42
TORSDOF 14
ENDMDL
MODEL 6
REMARK VINA RESULT:      -8.1      2.043      9.996
REMARK  Name = 
REMARK  14 active torsions:
REMARK  status: ('A' for Active; 'I' for Inactive)
REMARK    1  A    between atoms: C_3  and  O_45
REMARK    2  A    between atoms: C_5  and  O_20
REMARK    3  A    between atoms: C_6  and  O_8
REMARK    4  A    between atoms: O_8  and  C_9
REMARK    5  A    between atoms: C_9  and  C_11
REMARK    6  A    between atoms: C_13  and  O_19
REMARK    7  A    between atoms: C_14  and  O_18
REMARK    8  A    between atoms: C_15  and  O_17
REMARK    9  A    between atoms: C_26  and  O_44
REMARK   10  A    between atoms: C_27  and  O_43
REMARK   11  A    between atoms: C_28  and  O_42
REMARK   12  A    between atoms: C_31  and  O_41
REMARK   13  A    between atoms: C_32  and  O_40
REMARK   14  A    between atoms: C_33  and  O_39
REMARK                            x       y       z     vdW  Elec       q    Type
REMARK                         _______ _______ _______ _____ _____    ______ ____
ROOT
ATOM      1  C   UNL     1       8.685  -2.337  22.460  0.00  0.00    +0.000 C 
ATOM      2  C   UNL     1       7.544  -1.224  22.585  0.00  0.00    +0.000 C 
ATOM      3  C   UNL     1       6.364  -1.738  23.410  0.00  0.00    +0.000 C 
ATOM      4  C   UNL     1       6.966  -1.913  24.812  0.00  0.00    +0.000 C 
ATOM      5  C   UNL     1       7.310  -0.574  25.430  0.00  0.00    +0.000 C 
ATOM      6  C   UNL     1       8.335   0.116  24.496  0.00  0.00    +0.000 C 
ATOM      7  O   UNL     1       7.940   0.076  23.102  0.00  0.00    +0.000 OA
ATOM      8  O   UNL     1       6.190  -2.765  25.627  0.00  0.00    +0.000 OA
ATOM      9  C   UNL     1       6.963  -3.288  26.609  0.00  0.00    +0.000 C 
ATOM     10  O   UNL     1       7.998  -2.860  27.074  0.00  0.00    +0.000 OA
ATOM     11  C   UNL     1       6.334  -4.491  27.102  0.00  0.00    +0.000 A 
ATOM     12  C   UNL     1       6.171  -4.464  28.513  0.00  0.00    +0.000 A 
ATOM     13  C   UNL     1       5.485  -5.474  29.141  0.00  0.00    +0.000 A 
ATOM     14  C   UNL     1       4.985  -6.501  28.369  0.00  0.00    +0.000 A 
ATOM     15  C   UNL     1       5.191  -6.535  26.975  0.00  0.00    +0.000 A 
ATOM     16  C   UNL     1       5.893  -5.526  26.252  0.00  0.00    +0.000 A 
ATOM     17  C   UNL     1       5.994  -5.561  24.713  0.00  0.00    +0.000 A 
ATOM     18  C   UNL     1       4.781  -5.732  23.981  0.00  0.00    +0.000 A 
ATOM     19  C   UNL     1       4.765  -5.956  22.599  0.00  0.00    +0.000 A 
ATOM     20  C   UNL     1       5.938  -6.135  21.900  0.00  0.00    +0.000 A 
ATOM     21  C   UNL     1       7.146  -6.012  22.544  0.00  0.00    +0.000 A 
ATOM     22  C   UNL     1       7.182  -5.526  23.874  0.00  0.00    +0.000 A 
ATOM     23  C   UNL     1       8.330  -4.507  23.937  0.00  0.00    +0.000 C 
ATOM     24  O   UNL     1       9.137  -4.362  24.813  0.00  0.00    +0.000 OA
ATOM     25  O   UNL     1       8.173  -3.703  22.805  0.00  0.00    +0.000 OA
ENDROOT
BRANCH  19  26
ATOM     26  O   UNL     1       3.584  -5.956  21.905  0.00  0.00    +0.000 OA
ATOM     27  H   UNL     1       3.331  -6.903  21.886  0.00  0.00    +0.000 HD
ENDBRANCH  19  26
BRANCH   5  28
ATOM     28  O   UNL     1       6.119   0.181  25.674  0.00  0.00    +0.000 OA
ATOM     29  H   UNL     1       5.932   0.175  26.628  0.00  0.00    +0.000 HD
ENDBRANCH   5  28
BRANCH  20  30
ATOM     30  O   UNL     1       5.928  -6.249  20.540  0.00  0.00    +0.000 OA
ATOM     31  H   UNL     1       6.074  -7.203  20.376  0.00  0.00    +0.000 HD
ENDBRANCH  20  30
BRANCH   3  32
ATOM     32  O   UNL     1       5.779  -2.899  22.829  0.00  0.00    +0.000 OA
ATOM     33  H   UNL     1       5.235  -3.359  23.495  0.00  0.00    +0.000 HD
ENDBRANCH   3  32
BRANCH  18  34
ATOM     34  O   UNL     1       3.515  -5.610  24.519  0.00  0.00    +0.000 OA
ATOM     35  H   UNL     1       3.472  -4.781  25.025  0.00  0.00    +0.000 HD
ENDBRANCH  18  34
BRANCH  15  36
ATOM     36  O   UNL     1       4.576  -7.572  26.312  0.00  0.00    +0.000 OA
ATOM     37  H   UNL     1       3.626  -7.326  26.270  0.00  0.00    +0.000 HD
ENDBRANCH  15  36
BRANCH  14  38
ATOM     38  O   UNL     1       4.235  -7.487  28.959  0.00  0.00    +0.000 OA
ATOM     39  H   UNL     1       3.526  -7.683  28.309  0.00  0.00    +0.000 HD
ENDBRANCH  14  38
BRANCH  13  40
ATOM     40  O   UNL     1       5.250  -5.478  30.484  0.00  0.00    +0.000 OA
ATOM     41  H   UNL     1       5.815  -4.799  30.903  0.00  0.00    +0.000 HD
ENDBRANCH  13  40
BRANCH   6  42
ATOM     42  O   UNL     1       8.500   1.471  24.962  0.00  0.00    +0.000 OA
BRANCH  42  43
ATOM     43  C   UNL     1       9.469   2.163  24.300  0.00  0.00    +0.000 C 
ATOM     44  O   UNL     1      10.621   1.815  24.145  0.00  0.00    +0.000 OA
BRANCH  43  45
ATOM     45  C   UNL     1       8.938   3.446  23.763  0.00  0.00    +0.000 A 
ATOM     46  C   UNL     1       9.590   4.637  24.140  0.00  0.00    +0.000 A 
ATOM     47  C   UNL     1       9.069   5.862  23.735  0.00  0.00    +0.000 A 
ATOM     48  C   UNL     1       7.917   5.913  22.963  0.00  0.00    +0.000 A 
ATOM     49  C   UNL     1       7.287   4.729  22.571  0.00  0.00    +0.000 A 
ATOM     50  C   UNL     1       7.786   3.502  22.956  0.00  0.00    +0.000 A 
BRANCH  49  51
ATOM     51  O   UNL     1       6.134   4.792  21.843  0.00  0.00    +0.000 OA
ATOM     52  H   UNL     1       6.424   4.969  20.927  0.00  0.00    +0.000 HD
ENDBRANCH  49  51
BRANCH  48  53
ATOM     53  O   UNL     1       7.369   7.108  22.600  0.00  0.00    +0.000 OA
ATOM     54  H   UNL     1       7.799   7.318  21.746  0.00  0.00    +0.000 HD
ENDBRANCH  48  53
BRANCH  47  55
ATOM     55  O   UNL     1       9.645   7.050  24.093  0.00  0.00    +0.000 OA
ATOM     56  H   UNL     1      10.480   6.859  24.557  0.00  0.00    +0.000 HD
ENDBRANCH  47  55
ENDBRANCH  43  45
ENDBRANCH  42  43
ENDBRANCH   6  42
TORSDOF 14
ENDMDL
MODEL 7
REMARK VINA RESULT:      -8.0      1.511      2.118
REMARK  Name = 
REMARK  14 active torsions:
REMARK  status: ('A' for Active; 'I' for Inactive)
REMARK    1  A    between atoms: C_3  and  O_45
REMARK    2  A    between atoms: C_5  and  O_20
REMARK    3  A    between atoms: C_6  and  O_8
REMARK    4  A    between atoms: O_8  and  C_9
REMARK    5  A    between atoms: C_9  and  C_11
REMARK    6  A    between atoms: C_13  and  O_19
REMARK    7  A    between atoms: C_14  and  O_18
REMARK    8  A    between atoms: C_15  and  O_17
REMARK    9  A    between atoms: C_26  and  O_44
REMARK   10  A    between atoms: C_27  and  O_43
REMARK   11  A    between atoms: C_28  and  O_42
REMARK   12  A    between atoms: C_31  and  O_41
REMARK   13  A    between atoms: C_32  and  O_40
REMARK   14  A    between atoms: C_33  and  O_39
REMARK                            x       y       z     vdW  Elec       q    Type
REMARK                         _______ _______ _______ _____ _____    ______ ____
ROOT
ATOM      1  C   UNL     1       5.755  -1.196  25.391  0.00  0.00    +0.000 C 
ATOM      2  C   UNL     1       6.022  -1.798  23.935  0.00  0.00    +0.000 C 
ATOM      3  C   UNL     1       6.660  -0.754  23.018  0.00  0.00    +0.000 C 
ATOM      4  C   UNL     1       8.036  -0.519  23.657  0.00  0.00    +0.000 C 
ATOM      5  C   UNL     1       8.920  -1.741  23.518  0.00  0.00    +0.000 C 
ATOM      6  C   UNL     1       8.200  -2.915  24.227  0.00  0.00    +0.000 C 
ATOM      7  O   UNL     1       6.802  -3.022  23.856  0.00  0.00    +0.000 OA
ATOM      8  O   UNL     1       8.624   0.694  23.238  0.00  0.00    +0.000 OA
ATOM      9  C   UNL     1       9.532   1.104  24.155  0.00  0.00    +0.000 C 
ATOM     10  O   UNL     1      10.133   0.448  24.979  0.00  0.00    +0.000 OA
ATOM     11  C   UNL     1       9.746   2.523  23.991  0.00  0.00    +0.000 A 
ATOM     12  C   UNL     1      11.124   2.839  23.844  0.00  0.00    +0.000 A 
ATOM     13  C   UNL     1      11.504   4.127  23.561  0.00  0.00    +0.000 A 
ATOM     14  C   UNL     1      10.519   5.086  23.444  0.00  0.00    +0.000 A 
ATOM     15  C   UNL     1       9.159   4.766  23.634  0.00  0.00    +0.000 A 
ATOM     16  C   UNL     1       8.688   3.453  23.932  0.00  0.00    +0.000 A 
ATOM     17  C   UNL     1       7.180   3.141  24.022  0.00  0.00    +0.000 A 
ATOM     18  C   UNL     1       6.356   3.568  22.938  0.00  0.00    +0.000 A 
ATOM     19  C   UNL     1       4.959   3.502  22.988  0.00  0.00    +0.000 A 
ATOM     20  C   UNL     1       4.311   3.121  24.141  0.00  0.00    +0.000 A 
ATOM     21  C   UNL     1       5.039   2.722  25.237  0.00  0.00    +0.000 A 
ATOM     22  C   UNL     1       6.437   2.531  25.115  0.00  0.00    +0.000 A 
ATOM     23  C   UNL     1       6.765   1.214  25.834  0.00  0.00    +0.000 C 
ATOM     24  O   UNL     1       7.700   0.978  26.548  0.00  0.00    +0.000 OA
ATOM     25  O   UNL     1       5.800   0.303  25.394  0.00  0.00    +0.000 OA
ENDROOT
BRANCH  19  26
ATOM     26  O   UNL     1       4.208   3.769  21.874  0.00  0.00    +0.000 OA
ATOM     27  H   UNL     1       4.878   3.884  21.169  0.00  0.00    +0.000 HD
ENDBRANCH  19  26
BRANCH   5  28
ATOM     28  O   UNL     1       9.231  -1.974  22.141  0.00  0.00    +0.000 OA
ATOM     29  H   UNL     1       9.998  -2.568  22.088  0.00  0.00    +0.000 HD
ENDBRANCH   5  28
BRANCH  20  30
ATOM     30  O   UNL     1       2.957   2.956  24.159  0.00  0.00    +0.000 OA
ATOM     31  H   UNL     1       2.741   2.625  23.263  0.00  0.00    +0.000 HD
ENDBRANCH  20  30
BRANCH   3  32
ATOM     32  O   UNL     1       5.833   0.396  22.871  0.00  0.00    +0.000 OA
ATOM     33  H   UNL     1       6.092   1.071  23.525  0.00  0.00    +0.000 HD
ENDBRANCH   3  32
BRANCH  18  34
ATOM     34  O   UNL     1       6.830   4.001  21.715  0.00  0.00    +0.000 OA
ATOM     35  H   UNL     1       7.347   4.812  21.852  0.00  0.00    +0.000 HD
ENDBRANCH  18  34
BRANCH  15  36
ATOM     36  O   UNL     1       8.274   5.796  23.414  0.00  0.00    +0.000 OA
ATOM     37  H   UNL     1       8.317   6.352  24.222  0.00  0.00    +0.000 HD
ENDBRANCH  15  36
BRANCH  14  38
ATOM     38  O   UNL     1      10.862   6.367  23.093  0.00  0.00    +0.000 OA
ATOM     39  H   UNL     1      11.580   6.260  22.431  0.00  0.00    +0.000 HD
ENDBRANCH  14  38
BRANCH  13  40
ATOM     40  O   UNL     1      12.804   4.482  23.356  0.00  0.00    +0.000 OA
ATOM     41  H   UNL     1      12.931   4.666  22.404  0.00  0.00    +0.000 HD
ENDBRANCH  13  40
BRANCH   6  42
ATOM     42  O   UNL     1       8.926  -4.121  23.913  0.00  0.00    +0.000 OA
BRANCH  42  43
ATOM     43  C   UNL     1       9.203  -4.892  25.000  0.00  0.00    +0.000 C 
ATOM     44  O   UNL     1      10.306  -5.201  25.400  0.00  0.00    +0.000 OA
BRANCH  43  45
ATOM     45  C   UNL     1       7.951  -5.334  25.675  0.00  0.00    +0.000 A 
ATOM     46  C   UNL     1       6.912  -5.838  24.869  0.00  0.00    +0.000 A 
ATOM     47  C   UNL     1       5.693  -6.175  25.450  0.00  0.00    +0.000 A 
ATOM     48  C   UNL     1       5.502  -6.018  26.816  0.00  0.00    +0.000 A 
ATOM     49  C   UNL     1       6.542  -5.540  27.616  0.00  0.00    +0.000 A 
ATOM     50  C   UNL     1       7.761  -5.203  27.064  0.00  0.00    +0.000 A 
BRANCH  49  51
ATOM     51  O   UNL     1       6.332  -5.354  28.951  0.00  0.00    +0.000 OA
ATOM     52  H   UNL     1       5.571  -4.742  29.004  0.00  0.00    +0.000 HD
ENDBRANCH  49  51
BRANCH  48  53
ATOM     53  O   UNL     1       4.298  -6.298  27.392  0.00  0.00    +0.000 OA
ATOM     54  H   UNL     1       4.087  -5.492  27.907  0.00  0.00    +0.000 HD
ENDBRANCH  48  53
BRANCH  47  55
ATOM     55  O   UNL     1       4.641  -6.644  24.713  0.00  0.00    +0.000 OA
ATOM     56  H   UNL     1       3.991  -7.038  25.322  0.00  0.00    +0.000 HD
ENDBRANCH  47  55
ENDBRANCH  43  45
ENDBRANCH  42  43
ENDBRANCH   6  42
TORSDOF 14
ENDMDL
MODEL 8
REMARK VINA RESULT:      -7.9      2.352      9.516
REMARK  Name = 
REMARK  14 active torsions:
REMARK  status: ('A' for Active; 'I' for Inactive)
REMARK    1  A    between atoms: C_3  and  O_45
REMARK    2  A    between atoms: C_5  and  O_20
REMARK    3  A    between atoms: C_6  and  O_8
REMARK    4  A    between atoms: O_8  and  C_9
REMARK    5  A    between atoms: C_9  and  C_11
REMARK    6  A    between atoms: C_13  and  O_19
REMARK    7  A    between atoms: C_14  and  O_18
REMARK    8  A    between atoms: C_15  and  O_17
REMARK    9  A    between atoms: C_26  and  O_44
REMARK   10  A    between atoms: C_27  and  O_43
REMARK   11  A    between atoms: C_28  and  O_42
REMARK   12  A    between atoms: C_31  and  O_41
REMARK   13  A    between atoms: C_32  and  O_40
REMARK   14  A    between atoms: C_33  and  O_39
REMARK                            x       y       z     vdW  Elec       q    Type
REMARK                         _______ _______ _______ _____ _____    ______ ____
ROOT
ATOM      1  C   UNL     1      10.037  -0.006  24.985  0.00  0.00    +0.000 C 
ATOM      2  C   UNL     1       9.466   0.258  23.516  0.00  0.00    +0.000 C 
ATOM      3  C   UNL     1       8.210  -0.575  23.258  0.00  0.00    +0.000 C 
ATOM      4  C   UNL     1       7.189   0.015  24.241  0.00  0.00    +0.000 C 
ATOM      5  C   UNL     1       6.800   1.424  23.846  0.00  0.00    +0.000 C 
ATOM      6  C   UNL     1       8.093   2.277  23.849  0.00  0.00    +0.000 C 
ATOM      7  O   UNL     1       9.190   1.637  23.150  0.00  0.00    +0.000 OA
ATOM      8  O   UNL     1       6.106  -0.859  24.480  0.00  0.00    +0.000 OA
ATOM      9  C   UNL     1       5.531  -0.562  25.669  0.00  0.00    +0.000 C 
ATOM     10  O   UNL     1       5.554   0.482  26.286  0.00  0.00    +0.000 OA
ATOM     11  C   UNL     1       4.794  -1.716  26.128  0.00  0.00    +0.000 A 
ATOM     12  C   UNL     1       3.446  -1.395  26.444  0.00  0.00    +0.000 A 
ATOM     13  C   UNL     1       2.568  -2.392  26.785  0.00  0.00    +0.000 A 
ATOM     14  C   UNL     1       3.037  -3.689  26.825  0.00  0.00    +0.000 A 
ATOM     15  C   UNL     1       4.387  -3.987  26.551  0.00  0.00    +0.000 A 
ATOM     16  C   UNL     1       5.359  -3.006  26.191  0.00  0.00    +0.000 A 
ATOM     17  C   UNL     1       6.795  -3.404  25.797  0.00  0.00    +0.000 A 
ATOM     18  C   UNL     1       6.945  -4.420  24.806  0.00  0.00    +0.000 A 
ATOM     19  C   UNL     1       8.187  -4.988  24.497  0.00  0.00    +0.000 A 
ATOM     20  C   UNL     1       9.311  -4.665  25.223  0.00  0.00    +0.000 A 
ATOM     21  C   UNL     1       9.238  -3.713  26.212  0.00  0.00    +0.000 A 
ATOM     22  C   UNL     1       8.057  -2.944  26.356  0.00  0.00    +0.000 A 
ATOM     23  C   UNL     1       8.504  -1.488  26.558  0.00  0.00    +0.000 C 
ATOM     24  O   UNL     1       8.052  -0.680  27.320  0.00  0.00    +0.000 OA
ATOM     25  O   UNL     1       9.481  -1.264  25.584  0.00  0.00    +0.000 OA
ENDROOT
BRANCH  19  26
ATOM     26  O   UNL     1       8.319  -5.842  23.434  0.00  0.00    +0.000 OA
ATOM     27  H   UNL     1       7.545  -5.628  22.872  0.00  0.00    +0.000 HD
ENDBRANCH  19  26
BRANCH   5  28
ATOM     28  O   UNL     1       6.093   1.413  22.602  0.00  0.00    +0.000 OA
ATOM     29  H   UNL     1       5.164   1.646  22.767  0.00  0.00    +0.000 HD
ENDBRANCH   5  28
BRANCH  20  30
ATOM     30  O   UNL     1      10.538  -5.137  24.856  0.00  0.00    +0.000 OA
ATOM     31  H   UNL     1      11.010  -4.349  24.517  0.00  0.00    +0.000 HD
ENDBRANCH  20  30
BRANCH   3  32
ATOM     32  O   UNL     1       8.467  -1.971  23.382  0.00  0.00    +0.000 OA
ATOM     33  H   UNL     1       8.712  -2.177  24.303  0.00  0.00    +0.000 HD
ENDBRANCH   3  32
BRANCH  18  34
ATOM     34  O   UNL     1       5.926  -4.885  23.998  0.00  0.00    +0.000 OA
ATOM     35  H   UNL     1       5.823  -4.276  23.248  0.00  0.00    +0.000 HD
ENDBRANCH  18  34
BRANCH  15  36
ATOM     36  O   UNL     1       4.708  -5.325  26.550  0.00  0.00    +0.000 OA
ATOM     37  H   UNL     1       4.018  -5.757  27.098  0.00  0.00    +0.000 HD
ENDBRANCH  15  36
BRANCH  14  38
ATOM     38  O   UNL     1       2.166  -4.714  27.094  0.00  0.00    +0.000 OA
ATOM     39  H   UNL     1       1.824  -4.986  26.215  0.00  0.00    +0.000 HD
ENDBRANCH  14  38
BRANCH  13  40
ATOM     40  O   UNL     1       1.251  -2.154  27.046  0.00  0.00    +0.000 OA
ATOM     41  H   UNL     1       1.052  -1.223  26.825  0.00  0.00    +0.000 HD
ENDBRANCH  13  40
BRANCH   6  42
ATOM     42  O   UNL     1       7.768   3.557  23.268  0.00  0.00    +0.000 OA
BRANCH  42  43
ATOM     43  C   UNL     1       7.648   4.559  24.182  0.00  0.00    +0.000 C 
ATOM     44  O   UNL     1       6.633   4.884  24.762  0.00  0.00    +0.000 OA
BRANCH  43  45
ATOM     45  C   UNL     1       8.954   5.240  24.403  0.00  0.00    +0.000 A 
ATOM     46  C   UNL     1       9.943   5.103  23.409  0.00  0.00    +0.000 A 
ATOM     47  C   UNL     1      11.207   5.647  23.619  0.00  0.00    +0.000 A 
ATOM     48  C   UNL     1      11.492   6.321  24.798  0.00  0.00    +0.000 A 
ATOM     49  C   UNL     1      10.501   6.475  25.772  0.00  0.00    +0.000 A 
ATOM     50  C   UNL     1       9.239   5.949  25.585  0.00  0.00    +0.000 A 
BRANCH  49  51
ATOM     51  O   UNL     1      10.803   7.107  26.942  0.00  0.00    +0.000 OA
ATOM     52  H   UNL     1      11.071   8.010  26.680  0.00  0.00    +0.000 HD
ENDBRANCH  49  51
BRANCH  48  53
ATOM     53  O   UNL     1      12.739   6.816  25.038  0.00  0.00    +0.000 OA
ATOM     54  H   UNL     1      12.621   7.391  25.822  0.00  0.00    +0.000 HD
ENDBRANCH  48  53
BRANCH  47  55
ATOM     55  O   UNL     1      12.213   5.522  22.701  0.00  0.00    +0.000 OA
ATOM     56  H   UNL     1      11.817   5.502  21.812  0.00  0.00    +0.000 HD
ENDBRANCH  47  55
ENDBRANCH  43  45
ENDBRANCH  42  43
ENDBRANCH   6  42
TORSDOF 14
ENDMDL
MODEL 9
REMARK VINA RESULT:      -7.9      3.019      9.272
REMARK  Name = 
REMARK  14 active torsions:
REMARK  status: ('A' for Active; 'I' for Inactive)
REMARK    1  A    between atoms: C_3  and  O_45
REMARK    2  A    between atoms: C_5  and  O_20
REMARK    3  A    between atoms: C_6  and  O_8
REMARK    4  A    between atoms: O_8  and  C_9
REMARK    5  A    between atoms: C_9  and  C_11
REMARK    6  A    between atoms: C_13  and  O_19
REMARK    7  A    between atoms: C_14  and  O_18
REMARK    8  A    between atoms: C_15  and  O_17
REMARK    9  A    between atoms: C_26  and  O_44
REMARK   10  A    between atoms: C_27  and  O_43
REMARK   11  A    between atoms: C_28  and  O_42
REMARK   12  A    between atoms: C_31  and  O_41
REMARK   13  A    between atoms: C_32  and  O_40
REMARK   14  A    between atoms: C_33  and  O_39
REMARK                            x       y       z     vdW  Elec       q    Type
REMARK                         _______ _______ _______ _____ _____    ______ ____
ROOT
ATOM      1  C   UNL     1       8.235  -3.893  23.780  0.00  0.00    +0.000 C 
ATOM      2  C   UNL     1       7.695  -2.925  22.628  0.00  0.00    +0.000 C 
ATOM      3  C   UNL     1       6.259  -2.482  22.912  0.00  0.00    +0.000 C 
ATOM      4  C   UNL     1       6.400  -1.626  24.179  0.00  0.00    +0.000 C 
ATOM      5  C   UNL     1       7.146  -0.340  23.890  0.00  0.00    +0.000 C 
ATOM      6  C   UNL     1       8.547  -0.730  23.356  0.00  0.00    +0.000 C 
ATOM      7  O   UNL     1       8.492  -1.747  22.325  0.00  0.00    +0.000 OA
ATOM      8  O   UNL     1       5.172  -1.465  24.857  0.00  0.00    +0.000 OA
ATOM      9  C   UNL     1       5.403  -1.172  26.159  0.00  0.00    +0.000 C 
ATOM     10  O   UNL     1       6.391  -0.684  26.666  0.00  0.00    +0.000 OA
ATOM     11  C   UNL     1       4.222  -1.498  26.923  0.00  0.00    +0.000 A 
ATOM     12  C   UNL     1       3.780  -0.401  27.712  0.00  0.00    +0.000 A 
ATOM     13  C   UNL     1       2.604  -0.493  28.413  0.00  0.00    +0.000 A 
ATOM     14  C   UNL     1       1.891  -1.672  28.338  0.00  0.00    +0.000 A 
ATOM     15  C   UNL     1       2.363  -2.766  27.585  0.00  0.00    +0.000 A 
ATOM     16  C   UNL     1       3.575  -2.747  26.832  0.00  0.00    +0.000 A 
ATOM     17  C   UNL     1       3.986  -3.936  25.940  0.00  0.00    +0.000 A 
ATOM     18  C   UNL     1       3.015  -4.433  25.021  0.00  0.00    +0.000 A 
ATOM     19  C   UNL     1       3.208  -5.612  24.291  0.00  0.00    +0.000 A 
ATOM     20  C   UNL     1       4.308  -6.409  24.515  0.00  0.00    +0.000 A 
ATOM     21  C   UNL     1       5.274  -6.008  25.408  0.00  0.00    +0.000 A 
ATOM     22  C   UNL     1       5.224  -4.701  25.952  0.00  0.00    +0.000 A 
ATOM     23  C   UNL     1       6.655  -4.147  25.893  0.00  0.00    +0.000 C 
ATOM     24  O   UNL     1       7.230  -3.504  26.727  0.00  0.00    +0.000 OA
ATOM     25  O   UNL     1       7.117  -4.452  24.610  0.00  0.00    +0.000 OA
ENDROOT
BRANCH  19  26
ATOM     26  O   UNL     1       2.330  -5.973  23.304  0.00  0.00    +0.000 OA
ATOM     27  H   UNL     1       2.681  -5.520  22.509  0.00  0.00    +0.000 HD
ENDBRANCH  19  26
BRANCH   5  28
ATOM     28  O   UNL     1       6.381   0.492  23.012  0.00  0.00    +0.000 OA
ATOM     29  H   UNL     1       6.939   0.754  22.262  0.00  0.00    +0.000 HD
ENDBRANCH   5  28
BRANCH  20  30
ATOM     30  O   UNL     1       4.550  -7.500  23.734  0.00  0.00    +0.000 OA
ATOM     31  H   UNL     1       5.037  -7.144  22.964  0.00  0.00    +0.000 HD
ENDBRANCH  20  30
BRANCH   3  32
ATOM     32  O   UNL     1       5.372  -3.592  23.001  0.00  0.00    +0.000 OA
ATOM     33  H   UNL     1       4.658  -3.391  23.634  0.00  0.00    +0.000 HD
ENDBRANCH   3  32
BRANCH  18  34
ATOM     34  O   UNL     1       1.844  -3.781  24.688  0.00  0.00    +0.000 OA
ATOM     35  H   UNL     1       1.427  -4.253  23.948  0.00  0.00    +0.000 HD
ENDBRANCH  18  34
BRANCH  15  36
ATOM     36  O   UNL     1       1.522  -3.853  27.531  0.00  0.00    +0.000 OA
ATOM     37  H   UNL     1       2.090  -4.631  27.717  0.00  0.00    +0.000 HD
ENDBRANCH  15  36
BRANCH  14  38
ATOM     38  O   UNL     1       0.678  -1.769  28.971  0.00  0.00    +0.000 OA
ATOM     39  H   UNL     1       0.286  -0.872  28.896  0.00  0.00    +0.000 HD
ENDBRANCH  14  38
BRANCH  13  40
ATOM     40  O   UNL     1       2.101   0.541  29.144  0.00  0.00    +0.000 OA
ATOM     41  H   UNL     1       1.399   0.979  28.624  0.00  0.00    +0.000 HD
ENDBRANCH  13  40
BRANCH   6  42
ATOM     42  O   UNL     1       9.178   0.476  22.878  0.00  0.00    +0.000 OA
BRANCH  42  43
ATOM     43  C   UNL     1      10.095   0.993  23.741  0.00  0.00    +0.000 C 
ATOM     44  O   UNL     1      10.921   0.367  24.371  0.00  0.00    +0.000 OA
BRANCH  43  45
ATOM     45  C   UNL     1       9.968   2.474  23.832  0.00  0.00    +0.000 A 
ATOM     46  C   UNL     1       8.764   3.001  24.340  0.00  0.00    +0.000 A 
ATOM     47  C   UNL     1       8.571   4.379  24.355  0.00  0.00    +0.000 A 
ATOM     48  C   UNL     1       9.557   5.231  23.875  0.00  0.00    +0.000 A 
ATOM     49  C   UNL     1      10.759   4.705  23.393  0.00  0.00    +0.000 A 
ATOM     50  C   UNL     1      10.976   3.343  23.373  0.00  0.00    +0.000 A 
BRANCH  49  51
ATOM     51  O   UNL     1      11.706   5.548  22.889  0.00  0.00    +0.000 OA
ATOM     52  H   UNL     1      12.298   4.976  22.363  0.00  0.00    +0.000 HD
ENDBRANCH  49  51
BRANCH  48  53
ATOM     53  O   UNL     1       9.361   6.579  23.838  0.00  0.00    +0.000 OA
ATOM     54  H   UNL     1       9.051   6.750  22.926  0.00  0.00    +0.000 HD
ENDBRANCH  48  53
BRANCH  47  55
ATOM     55  O   UNL     1       7.413   4.946  24.812  0.00  0.00    +0.000 OA
ATOM     56  H   UNL     1       7.403   4.881  25.784  0.00  0.00    +0.000 HD
ENDBRANCH  47  55
ENDBRANCH  43  45
ENDBRANCH  42  43
ENDBRANCH   6  42
TORSDOF 14
ENDMDL
