MODEL 1
REMARK VINA RESULT:      -6.7      0.000      0.000
REMARK  Name = 
REMARK  6 active torsions:
REMARK  status: ('A' for Active; 'I' for Inactive)
REMARK    1  A    between atoms: C_3  and  C_9
REMARK    2  A    between atoms: C_4  and  O_8
REMARK    3  A    between atoms: C_6  and  O_7
REMARK    4  A    between atoms: C_10  and  O_22
REMARK    5  A    between atoms: C_14  and  O_21
REMARK    6  A    between atoms: C_16  and  O_20
REMARK                            x       y       z     vdW  Elec       q    Type
REMARK                         _______ _______ _______ _____ _____    ______ ____
ROOT
ATOM      1  C   UNL     1       9.228  -4.280  24.951  0.00  0.00    +0.000 A 
ATOM      2  C   UNL     1       8.753  -4.936  26.030  0.00  0.00    +0.000 A 
ATOM      3  C   UNL     1       7.369  -5.517  25.796  0.00  0.00    +0.000 A 
ATOM      4  O   UNL     1       6.713  -6.079  26.661  0.00  0.00    +0.000 OA
ATOM      5  C   UNL     1       6.729  -5.164  24.502  0.00  0.00    +0.000 A 
ATOM      6  C   UNL     1       5.374  -4.877  24.391  0.00  0.00    +0.000 A 
ATOM      7  C   UNL     1       4.889  -4.276  23.225  0.00  0.00    +0.000 A 
ATOM      8  C   UNL     1       5.764  -4.012  22.168  0.00  0.00    +0.000 A 
ATOM      9  C   UNL     1       7.108  -4.348  22.246  0.00  0.00    +0.000 A 
ATOM     10  C   UNL     1       7.583  -4.872  23.443  0.00  0.00    +0.000 A 
ATOM     11  O   UNL     1       8.942  -4.843  23.683  0.00  0.00    +0.000 OA
ENDROOT
BRANCH   1  14
ATOM     12  C   UNL     1       7.179  -1.230  24.927  0.00  0.00    +0.000 A 
ATOM     13  C   UNL     1       7.985  -2.181  25.558  0.00  0.00    +0.000 A 
ATOM     14  C   UNL     1       9.078  -2.761  24.871  0.00  0.00    +0.000 A 
ATOM     15  C   UNL     1       9.502  -2.131  23.687  0.00  0.00    +0.000 A 
ATOM     16  C   UNL     1       8.698  -1.186  23.051  0.00  0.00    +0.000 A 
ATOM     17  C   UNL     1       7.500  -0.807  23.646  0.00  0.00    +0.000 A 
BRANCH  15  18
ATOM     18  O   UNL     1      10.640  -2.510  23.029  0.00  0.00    +0.000 OA
ATOM     19  H   UNL     1      10.988  -3.301  23.477  0.00  0.00    +0.000 HD
ENDBRANCH  15  18
BRANCH  17  20
ATOM     20  O   UNL     1       6.581  -0.060  22.970  0.00  0.00    +0.000 OA
ATOM     21  H   UNL     1       5.772  -0.594  22.882  0.00  0.00    +0.000 HD
ENDBRANCH  17  20
ENDBRANCH   1  14
BRANCH   8  22
ATOM     22  O   UNL     1       5.353  -3.323  21.064  0.00  0.00    +0.000 OA
ATOM     23  H   UNL     1       5.293  -2.381  21.297  0.00  0.00    +0.000 HD
ENDBRANCH   8  22
BRANCH   6  24
ATOM     24  O   UNL     1       4.494  -5.039  25.425  0.00  0.00    +0.000 OA
ATOM     25  H   UNL     1       3.600  -4.769  25.113  0.00  0.00    +0.000 HD
ENDBRANCH   6  24
BRANCH   2  26
ATOM     26  O   UNL     1       9.096  -4.629  27.332  0.00  0.00    +0.000 OA
ATOM     27  H   UNL     1       8.582  -3.838  27.573  0.00  0.00    +0.000 HD
ENDBRANCH   2  26
TORSDOF 6
ENDMDL
MODEL 2
REMARK VINA RESULT:      -6.5      2.835      4.740
REMARK  Name = 
REMARK  6 active torsions:
REMARK  status: ('A' for Active; 'I' for Inactive)
REMARK    1  A    between atoms: C_3  and  C_9
REMARK    2  A    between atoms: C_4  and  O_8
REMARK    3  A    between atoms: C_6  and  O_7
REMARK    4  A    between atoms: C_10  and  O_22
REMARK    5  A    between atoms: C_14  and  O_21
REMARK    6  A    between atoms: C_16  and  O_20
REMARK                            x       y       z     vdW  Elec       q    Type
REMARK                         _______ _______ _______ _____ _____    ______ ____
ROOT
ATOM      1  C   UNL     1       8.826  -1.700  23.139  0.00  0.00    +0.000 A 
ATOM      2  C   UNL     1       9.032  -2.558  24.160  0.00  0.00    +0.000 A 
ATOM      3  C   UNL     1       8.352  -2.111  25.442  0.00  0.00    +0.000 A 
ATOM      4  O   UNL     1       8.472  -2.691  26.512  0.00  0.00    +0.000 OA
ATOM      5  C   UNL     1       7.701  -0.776  25.399  0.00  0.00    +0.000 A 
ATOM      6  C   UNL     1       7.747   0.114  26.466  0.00  0.00    +0.000 A 
ATOM      7  C   UNL     1       7.376   1.447  26.270  0.00  0.00    +0.000 A 
ATOM      8  C   UNL     1       6.921   1.860  25.014  0.00  0.00    +0.000 A 
ATOM      9  C   UNL     1       6.817   0.967  23.957  0.00  0.00    +0.000 A 
ATOM     10  C   UNL     1       7.265  -0.335  24.154  0.00  0.00    +0.000 A 
ATOM     11  O   UNL     1       7.539  -1.112  23.047  0.00  0.00    +0.000 OA
ENDROOT
BRANCH   1  14
ATOM     12  C   UNL     1      10.727   1.329  23.984  0.00  0.00    +0.000 A 
ATOM     13  C   UNL     1      10.562  -0.057  23.916  0.00  0.00    +0.000 A 
ATOM     14  C   UNL     1       9.883  -0.643  22.821  0.00  0.00    +0.000 A 
ATOM     15  C   UNL     1       9.673   0.162  21.687  0.00  0.00    +0.000 A 
ATOM     16  C   UNL     1       9.830   1.546  21.754  0.00  0.00    +0.000 A 
ATOM     17  C   UNL     1      10.280   2.121  22.936  0.00  0.00    +0.000 A 
BRANCH  15  18
ATOM     18  O   UNL     1       9.171  -0.344  20.520  0.00  0.00    +0.000 OA
ATOM     19  H   UNL     1       9.077   0.397  19.895  0.00  0.00    +0.000 HD
ENDBRANCH  15  18
BRANCH  17  20
ATOM     20  O   UNL     1      10.243   3.471  23.125  0.00  0.00    +0.000 OA
ATOM     21  H   UNL     1       9.322   3.760  23.008  0.00  0.00    +0.000 HD
ENDBRANCH  17  20
ENDBRANCH   1  14
BRANCH   8  22
ATOM     22  O   UNL     1       6.661   3.174  24.752  0.00  0.00    +0.000 OA
ATOM     23  H   UNL     1       7.508   3.628  24.601  0.00  0.00    +0.000 HD
ENDBRANCH   8  22
BRANCH   6  24
ATOM     24  O   UNL     1       8.260  -0.220  27.689  0.00  0.00    +0.000 OA
ATOM     25  H   UNL     1       8.269  -1.202  27.761  0.00  0.00    +0.000 HD
ENDBRANCH   6  24
BRANCH   2  26
ATOM     26  O   UNL     1      10.156  -3.351  24.285  0.00  0.00    +0.000 OA
ATOM     27  H   UNL     1       9.845  -4.226  24.578  0.00  0.00    +0.000 HD
ENDBRANCH   2  26
TORSDOF 6
ENDMDL
MODEL 3
REMARK VINA RESULT:      -6.4      3.129      5.517
REMARK  Name = 
REMARK  6 active torsions:
REMARK  status: ('A' for Active; 'I' for Inactive)
REMARK    1  A    between atoms: C_3  and  C_9
REMARK    2  A    between atoms: C_4  and  O_8
REMARK    3  A    between atoms: C_6  and  O_7
REMARK    4  A    between atoms: C_10  and  O_22
REMARK    5  A    between atoms: C_14  and  O_21
REMARK    6  A    between atoms: C_16  and  O_20
REMARK                            x       y       z     vdW  Elec       q    Type
REMARK                         _______ _______ _______ _____ _____    ______ ____
ROOT
ATOM      1  C   UNL     1       8.779  -1.041  25.741  0.00  0.00    +0.000 A 
ATOM      2  C   UNL     1       8.922  -2.168  25.013  0.00  0.00    +0.000 A 
ATOM      3  C   UNL     1       9.666  -1.929  23.710  0.00  0.00    +0.000 A 
ATOM      4  O   UNL     1       9.837  -2.790  22.859  0.00  0.00    +0.000 OA
ATOM      5  C   UNL     1       9.988  -0.513  23.398  0.00  0.00    +0.000 A 
ATOM      6  C   UNL     1       9.901   0.009  22.113  0.00  0.00    +0.000 A 
ATOM      7  C   UNL     1       9.931   1.395  21.926  0.00  0.00    +0.000 A 
ATOM      8  C   UNL     1      10.092   2.236  23.030  0.00  0.00    +0.000 A 
ATOM      9  C   UNL     1      10.238   1.725  24.311  0.00  0.00    +0.000 A 
ATOM     10  C   UNL     1      10.126   0.349  24.481  0.00  0.00    +0.000 A 
ATOM     11  O   UNL     1       9.874  -0.140  25.747  0.00  0.00    +0.000 OA
ENDROOT
BRANCH   1  14
ATOM     12  C   UNL     1       6.368   1.006  23.869  0.00  0.00    +0.000 A 
ATOM     13  C   UNL     1       6.833  -0.207  24.386  0.00  0.00    +0.000 A 
ATOM     14  C   UNL     1       7.477  -0.246  25.646  0.00  0.00    +0.000 A 
ATOM     15  C   UNL     1       7.348   0.886  26.471  0.00  0.00    +0.000 A 
ATOM     16  C   UNL     1       6.891   2.098  25.956  0.00  0.00    +0.000 A 
ATOM     17  C   UNL     1       6.482   2.159  24.630  0.00  0.00    +0.000 A 
BRANCH  15  18
ATOM     18  O   UNL     1       7.794   0.897  27.764  0.00  0.00    +0.000 OA
ATOM     19  H   UNL     1       8.067   1.807  27.973  0.00  0.00    +0.000 HD
ENDBRANCH  15  18
BRANCH  17  20
ATOM     20  O   UNL     1       6.236   3.354  24.020  0.00  0.00    +0.000 OA
ATOM     21  H   UNL     1       5.378   3.284  23.567  0.00  0.00    +0.000 HD
ENDBRANCH  17  20
ENDBRANCH   1  14
BRANCH   8  22
ATOM     22  O   UNL     1      10.010   3.593  22.903  0.00  0.00    +0.000 OA
ATOM     23  H   UNL     1       9.633   3.954  23.724  0.00  0.00    +0.000 HD
ENDBRANCH   8  22
BRANCH   6  24
ATOM     24  O   UNL     1       9.660  -0.767  21.012  0.00  0.00    +0.000 OA
ATOM     25  H   UNL     1       8.690  -0.770  20.845  0.00  0.00    +0.000 HD
ENDBRANCH   6  24
BRANCH   2  26
ATOM     26  O   UNL     1       8.035  -3.226  25.049  0.00  0.00    +0.000 OA
ATOM     27  H   UNL     1       7.194  -2.892  24.691  0.00  0.00    +0.000 HD
ENDBRANCH   2  26
TORSDOF 6
ENDMDL
MODEL 4
REMARK VINA RESULT:      -6.4      1.715      4.373
REMARK  Name = 
REMARK  6 active torsions:
REMARK  status: ('A' for Active; 'I' for Inactive)
REMARK    1  A    between atoms: C_3  and  C_9
REMARK    2  A    between atoms: C_4  and  O_8
REMARK    3  A    between atoms: C_6  and  O_7
REMARK    4  A    between atoms: C_10  and  O_22
REMARK    5  A    between atoms: C_14  and  O_21
REMARK    6  A    between atoms: C_16  and  O_20
REMARK                            x       y       z     vdW  Elec       q    Type
REMARK                         _______ _______ _______ _____ _____    ______ ____
ROOT
ATOM      1  C   UNL     1       6.002  -3.068  23.355  0.00  0.00    +0.000 A 
ATOM      2  C   UNL     1       5.270  -3.822  22.508  0.00  0.00    +0.000 A 
ATOM      3  C   UNL     1       4.464  -4.890  23.228  0.00  0.00    +0.000 A 
ATOM      4  O   UNL     1       3.795  -5.737  22.654  0.00  0.00    +0.000 OA
ATOM      5  C   UNL     1       4.708  -5.011  24.688  0.00  0.00    +0.000 A 
ATOM      6  C   UNL     1       4.762  -6.238  25.339  0.00  0.00    +0.000 A 
ATOM      7  C   UNL     1       5.276  -6.310  26.637  0.00  0.00    +0.000 A 
ATOM      8  C   UNL     1       5.689  -5.141  27.282  0.00  0.00    +0.000 A 
ATOM      9  C   UNL     1       5.586  -3.903  26.664  0.00  0.00    +0.000 A 
ATOM     10  C   UNL     1       5.145  -3.866  25.345  0.00  0.00    +0.000 A 
ATOM     11  O   UNL     1       5.403  -2.735  24.595  0.00  0.00    +0.000 OA
ENDROOT
BRANCH   1  14
ATOM     12  C   UNL     1       8.648  -5.296  24.596  0.00  0.00    +0.000 A 
ATOM     13  C   UNL     1       7.826  -4.783  23.589  0.00  0.00    +0.000 A 
ATOM     14  C   UNL     1       7.473  -3.412  23.584  0.00  0.00    +0.000 A 
ATOM     15  C   UNL     1       8.217  -2.553  24.414  0.00  0.00    +0.000 A 
ATOM     16  C   UNL     1       9.033  -3.062  25.423  0.00  0.00    +0.000 A 
ATOM     17  C   UNL     1       9.173  -4.438  25.551  0.00  0.00    +0.000 A 
BRANCH  15  18
ATOM     18  O   UNL     1       8.068  -1.193  24.371  0.00  0.00    +0.000 OA
ATOM     19  H   UNL     1       7.737  -0.962  23.486  0.00  0.00    +0.000 HD
ENDBRANCH  15  18
BRANCH  17  20
ATOM     20  O   UNL     1       9.776  -4.989  26.643  0.00  0.00    +0.000 OA
ATOM     21  H   UNL     1       9.084  -5.174  27.302  0.00  0.00    +0.000 HD
ENDBRANCH  17  20
ENDBRANCH   1  14
BRANCH   8  22
ATOM     22  O   UNL     1       6.302  -5.183  28.500  0.00  0.00    +0.000 OA
ATOM     23  H   UNL     1       7.265  -5.163  28.358  0.00  0.00    +0.000 HD
ENDBRANCH   8  22
BRANCH   6  24
ATOM     24  O   UNL     1       4.448  -7.419  24.723  0.00  0.00    +0.000 OA
ATOM     25  H   UNL     1       4.705  -7.348  23.775  0.00  0.00    +0.000 HD
ENDBRANCH   6  24
BRANCH   2  26
ATOM     26  O   UNL     1       5.626  -4.077  21.198  0.00  0.00    +0.000 OA
ATOM     27  H   UNL     1       6.577  -3.878  21.127  0.00  0.00    +0.000 HD
ENDBRANCH   2  26
TORSDOF 6
ENDMDL
MODEL 5
REMARK VINA RESULT:      -6.4      1.515      4.897
REMARK  Name = 
REMARK  6 active torsions:
REMARK  status: ('A' for Active; 'I' for Inactive)
REMARK    1  A    between atoms: C_3  and  C_9
REMARK    2  A    between atoms: C_4  and  O_8
REMARK    3  A    between atoms: C_6  and  O_7
REMARK    4  A    between atoms: C_10  and  O_22
REMARK    5  A    between atoms: C_14  and  O_21
REMARK    6  A    between atoms: C_16  and  O_20
REMARK                            x       y       z     vdW  Elec       q    Type
REMARK                         _______ _______ _______ _____ _____    ______ ____
ROOT
ATOM      1  C   UNL     1       7.001  -2.184  22.537  0.00  0.00    +0.000 A 
ATOM      2  C   UNL     1       7.293  -0.920  22.904  0.00  0.00    +0.000 A 
ATOM      3  C   UNL     1       8.218  -0.861  24.108  0.00  0.00    +0.000 A 
ATOM      4  O   UNL     1       8.548   0.178  24.661  0.00  0.00    +0.000 OA
ATOM      5  C   UNL     1       8.533  -2.166  24.746  0.00  0.00    +0.000 A 
ATOM      6  C   UNL     1       8.625  -2.322  26.124  0.00  0.00    +0.000 A 
ATOM      7  C   UNL     1       8.634  -3.607  26.674  0.00  0.00    +0.000 A 
ATOM      8  C   UNL     1       8.595  -4.720  25.830  0.00  0.00    +0.000 A 
ATOM      9  C   UNL     1       8.561  -4.577  24.451  0.00  0.00    +0.000 A 
ATOM     10  C   UNL     1       8.474  -3.290  23.929  0.00  0.00    +0.000 A 
ATOM     11  O   UNL     1       8.048  -3.135  22.625  0.00  0.00    +0.000 OA
ENDROOT
BRANCH   1  14
ATOM     12  C   UNL     1       4.845  -3.505  25.204  0.00  0.00    +0.000 A 
ATOM     13  C   UNL     1       5.267  -2.499  24.330  0.00  0.00    +0.000 A 
ATOM     14  C   UNL     1       5.701  -2.825  23.023  0.00  0.00    +0.000 A 
ATOM     15  C   UNL     1       5.396  -4.112  22.545  0.00  0.00    +0.000 A 
ATOM     16  C   UNL     1       4.981  -5.119  23.416  0.00  0.00    +0.000 A 
ATOM     17  C   UNL     1       4.789  -4.817  24.758  0.00  0.00    +0.000 A 
BRANCH  15  18
ATOM     18  O   UNL     1       5.626  -4.479  21.247  0.00  0.00    +0.000 OA
ATOM     19  H   UNL     1       4.888  -5.047  20.967  0.00  0.00    +0.000 HD
ENDBRANCH  15  18
BRANCH  17  20
ATOM     20  O   UNL     1       4.598  -5.799  25.684  0.00  0.00    +0.000 OA
ATOM     21  H   UNL     1       3.994  -5.453  26.363  0.00  0.00    +0.000 HD
ENDBRANCH  17  20
ENDBRANCH   1  14
BRANCH   8  22
ATOM     22  O   UNL     1       8.485  -5.985  26.331  0.00  0.00    +0.000 OA
ATOM     23  H   UNL     1       8.132  -5.925  27.236  0.00  0.00    +0.000 HD
ENDBRANCH   8  22
BRANCH   6  24
ATOM     24  O   UNL     1       8.584  -1.267  26.994  0.00  0.00    +0.000 OA
ATOM     25  H   UNL     1       8.155  -1.573  27.826  0.00  0.00    +0.000 HD
ENDBRANCH   6  24
BRANCH   2  26
ATOM     26  O   UNL     1       6.450   0.156  22.704  0.00  0.00    +0.000 OA
ATOM     27  H   UNL     1       5.677   0.010  23.278  0.00  0.00    +0.000 HD
ENDBRANCH   2  26
TORSDOF 6
ENDMDL
MODEL 6
REMARK VINA RESULT:      -6.2      1.868      4.956
REMARK  Name = 
REMARK  6 active torsions:
REMARK  status: ('A' for Active; 'I' for Inactive)
REMARK    1  A    between atoms: C_3  and  C_9
REMARK    2  A    between atoms: C_4  and  O_8
REMARK    3  A    between atoms: C_6  and  O_7
REMARK    4  A    between atoms: C_10  and  O_22
REMARK    5  A    between atoms: C_14  and  O_21
REMARK    6  A    between atoms: C_16  and  O_20
REMARK                            x       y       z     vdW  Elec       q    Type
REMARK                         _______ _______ _______ _____ _____    ______ ____
ROOT
ATOM      1  C   UNL     1       5.709  -2.299  24.304  0.00  0.00    +0.000 A 
ATOM      2  C   UNL     1       5.390  -1.259  25.102  0.00  0.00    +0.000 A 
ATOM      3  C   UNL     1       6.376  -0.110  24.984  0.00  0.00    +0.000 A 
ATOM      4  O   UNL     1       6.330   0.899  25.674  0.00  0.00    +0.000 OA
ATOM      5  C   UNL     1       7.568  -0.364  24.132  0.00  0.00    +0.000 A 
ATOM      6  C   UNL     1       8.838   0.090  24.468  0.00  0.00    +0.000 A 
ATOM      7  C   UNL     1       9.953  -0.418  23.795  0.00  0.00    +0.000 A 
ATOM      8  C   UNL     1       9.774  -1.343  22.763  0.00  0.00    +0.000 A 
ATOM      9  C   UNL     1       8.507  -1.760  22.381  0.00  0.00    +0.000 A 
ATOM     10  C   UNL     1       7.419  -1.301  23.116  0.00  0.00    +0.000 A 
ATOM     11  O   UNL     1       6.224  -1.986  23.021  0.00  0.00    +0.000 OA
ENDROOT
BRANCH   1  14
ATOM     12  C   UNL     1       8.679  -3.725  25.930  0.00  0.00    +0.000 A 
ATOM     13  C   UNL     1       7.383  -3.204  25.946  0.00  0.00    +0.000 A 
ATOM     14  C   UNL     1       6.489  -3.478  24.883  0.00  0.00    +0.000 A 
ATOM     15  C   UNL     1       6.834  -4.520  24.004  0.00  0.00    +0.000 A 
ATOM     16  C   UNL     1       8.129  -5.038  23.981  0.00  0.00    +0.000 A 
ATOM     17  C   UNL     1       9.061  -4.570  24.899  0.00  0.00    +0.000 A 
BRANCH  15  18
ATOM     18  O   UNL     1       5.975  -4.973  23.041  0.00  0.00    +0.000 OA
ATOM     19  H   UNL     1       5.362  -5.598  23.465  0.00  0.00    +0.000 HD
ENDBRANCH  15  18
BRANCH  17  20
ATOM     20  O   UNL     1      10.384  -4.878  24.781  0.00  0.00    +0.000 OA
ATOM     21  H   UNL     1      10.499  -5.380  23.955  0.00  0.00    +0.000 HD
ENDBRANCH  17  20
ENDBRANCH   1  14
BRANCH   8  22
ATOM     22  O   UNL     1      10.840  -1.948  22.162  0.00  0.00    +0.000 OA
ATOM     23  H   UNL     1      10.696  -1.933  21.200  0.00  0.00    +0.000 HD
ENDBRANCH   8  22
BRANCH   6  24
ATOM     24  O   UNL     1       9.071   0.930  25.522  0.00  0.00    +0.000 OA
ATOM     25  H   UNL     1       8.532   1.744  25.391  0.00  0.00    +0.000 HD
ENDBRANCH   6  24
BRANCH   2  26
ATOM     26  O   UNL     1       4.710  -1.385  26.298  0.00  0.00    +0.000 OA
ATOM     27  H   UNL     1       3.763  -1.305  26.085  0.00  0.00    +0.000 HD
ENDBRANCH   2  26
TORSDOF 6
ENDMDL
MODEL 7
REMARK VINA RESULT:      -6.2      1.889      3.946
REMARK  Name = 
REMARK  6 active torsions:
REMARK  status: ('A' for Active; 'I' for Inactive)
REMARK    1  A    between atoms: C_3  and  C_9
REMARK    2  A    between atoms: C_4  and  O_8
REMARK    3  A    between atoms: C_6  and  O_7
REMARK    4  A    between atoms: C_10  and  O_22
REMARK    5  A    between atoms: C_14  and  O_21
REMARK    6  A    between atoms: C_16  and  O_20
REMARK                            x       y       z     vdW  Elec       q    Type
REMARK                         _______ _______ _______ _____ _____    ______ ____
ROOT
ATOM      1  C   UNL     1       7.081  -0.404  25.692  0.00  0.00    +0.000 A 
ATOM      2  C   UNL     1       5.767  -0.586  25.445  0.00  0.00    +0.000 A 
ATOM      3  C   UNL     1       5.409  -2.049  25.250  0.00  0.00    +0.000 A 
ATOM      4  O   UNL     1       4.294  -2.439  24.934  0.00  0.00    +0.000 OA
ATOM      5  C   UNL     1       6.551  -2.999  25.232  0.00  0.00    +0.000 A 
ATOM      6  C   UNL     1       6.610  -4.083  24.365  0.00  0.00    +0.000 A 
ATOM      7  C   UNL     1       7.819  -4.763  24.189  0.00  0.00    +0.000 A 
ATOM      8  C   UNL     1       8.943  -4.373  24.922  0.00  0.00    +0.000 A 
ATOM      9  C   UNL     1       8.882  -3.329  25.834  0.00  0.00    +0.000 A 
ATOM     10  C   UNL     1       7.691  -2.617  25.933  0.00  0.00    +0.000 A 
ATOM     11  O   UNL     1       7.717  -1.366  26.516  0.00  0.00    +0.000 OA
ENDROOT
BRANCH   1  14
ATOM     12  C   UNL     1       8.453  -0.963  22.329  0.00  0.00    +0.000 A 
ATOM     13  C   UNL     1       7.584  -0.341  23.230  0.00  0.00    +0.000 A 
ATOM     14  C   UNL     1       8.016  -0.032  24.542  0.00  0.00    +0.000 A 
ATOM     15  C   UNL     1       9.400  -0.079  24.793  0.00  0.00    +0.000 A 
ATOM     16  C   UNL     1      10.268  -0.704  23.899  0.00  0.00    +0.000 A 
ATOM     17  C   UNL     1       9.764  -1.213  22.708  0.00  0.00    +0.000 A 
BRANCH  15  18
ATOM     18  O   UNL     1       9.939   0.351  25.974  0.00  0.00    +0.000 OA
ATOM     19  H   UNL     1      10.198   1.281  25.858  0.00  0.00    +0.000 HD
ENDBRANCH  15  18
BRANCH  17  20
ATOM     20  O   UNL     1      10.518  -2.019  21.908  0.00  0.00    +0.000 OA
ATOM     21  H   UNL     1       9.980  -2.251  21.131  0.00  0.00    +0.000 HD
ENDBRANCH  17  20
ENDBRANCH   1  14
BRANCH   8  22
ATOM     22  O   UNL     1      10.166  -4.934  24.695  0.00  0.00    +0.000 OA
ATOM     23  H   UNL     1      10.030  -5.830  24.341  0.00  0.00    +0.000 HD
ENDBRANCH   8  22
BRANCH   6  24
ATOM     24  O   UNL     1       5.562  -4.451  23.566  0.00  0.00    +0.000 OA
ATOM     25  H   UNL     1       5.056  -5.157  24.029  0.00  0.00    +0.000 HD
ENDBRANCH   6  24
BRANCH   2  26
ATOM     26  O   UNL     1       4.963   0.349  24.823  0.00  0.00    +0.000 OA
ATOM     27  H   UNL     1       4.090  -0.068  24.714  0.00  0.00    +0.000 HD
ENDBRANCH   2  26
TORSDOF 6
ENDMDL
MODEL 8
REMARK VINA RESULT:      -6.1      1.538      4.601
REMARK  Name = 
REMARK  6 active torsions:
REMARK  status: ('A' for Active; 'I' for Inactive)
REMARK    1  A    between atoms: C_3  and  C_9
REMARK    2  A    between atoms: C_4  and  O_8
REMARK    3  A    between atoms: C_6  and  O_7
REMARK    4  A    between atoms: C_10  and  O_22
REMARK    5  A    between atoms: C_14  and  O_21
REMARK    6  A    between atoms: C_16  and  O_20
REMARK                            x       y       z     vdW  Elec       q    Type
REMARK                         _______ _______ _______ _____ _____    ______ ____
ROOT
ATOM      1  C   UNL     1       8.126  -4.976  26.082  0.00  0.00    +0.000 A 
ATOM      2  C   UNL     1       9.200  -4.819  25.280  0.00  0.00    +0.000 A 
ATOM      3  C   UNL     1       9.300  -3.415  24.710  0.00  0.00    +0.000 A 
ATOM      4  O   UNL     1      10.145  -3.072  23.895  0.00  0.00    +0.000 OA
ATOM      5  C   UNL     1       8.162  -2.510  25.014  0.00  0.00    +0.000 A 
ATOM      6  C   UNL     1       7.647  -1.616  24.083  0.00  0.00    +0.000 A 
ATOM      7  C   UNL     1       6.411  -1.007  24.320  0.00  0.00    +0.000 A 
ATOM      8  C   UNL     1       5.729  -1.270  25.510  0.00  0.00    +0.000 A 
ATOM      9  C   UNL     1       6.260  -2.116  26.473  0.00  0.00    +0.000 A 
ATOM     10  C   UNL     1       7.452  -2.771  26.181  0.00  0.00    +0.000 A 
ATOM     11  O   UNL     1       7.790  -3.885  26.922  0.00  0.00    +0.000 OA
ENDROOT
BRANCH   1  14
ATOM     12  C   UNL     1       5.174  -4.833  23.899  0.00  0.00    +0.000 A 
ATOM     13  C   UNL     1       6.486  -5.215  24.192  0.00  0.00    +0.000 A 
ATOM     14  C   UNL     1       6.845  -5.583  25.511  0.00  0.00    +0.000 A 
ATOM     15  C   UNL     1       5.799  -5.852  26.412  0.00  0.00    +0.000 A 
ATOM     16  C   UNL     1       4.490  -5.466  26.125  0.00  0.00    +0.000 A 
ATOM     17  C   UNL     1       4.210  -4.884  24.895  0.00  0.00    +0.000 A 
BRANCH  15  18
ATOM     18  O   UNL     1       6.028  -6.365  27.659  0.00  0.00    +0.000 OA
ATOM     19  H   UNL     1       6.684  -5.794  28.096  0.00  0.00    +0.000 HD
ENDBRANCH  15  18
BRANCH  17  20
ATOM     20  O   UNL     1       3.005  -4.295  24.650  0.00  0.00    +0.000 OA
ATOM     21  H   UNL     1       3.039  -3.912  23.756  0.00  0.00    +0.000 HD
ENDBRANCH  17  20
ENDBRANCH   1  14
BRANCH   8  22
ATOM     22  O   UNL     1       4.470  -0.788  25.727  0.00  0.00    +0.000 OA
ATOM     23  H   UNL     1       3.969  -0.860  24.896  0.00  0.00    +0.000 HD
ENDBRANCH   8  22
BRANCH   6  24
ATOM     24  O   UNL     1       8.235  -1.388  22.869  0.00  0.00    +0.000 OA
ATOM     25  H   UNL     1       7.584  -1.615  22.165  0.00  0.00    +0.000 HD
ENDBRANCH   6  24
BRANCH   2  26
ATOM     26  O   UNL     1       9.768  -5.841  24.544  0.00  0.00    +0.000 OA
ATOM     27  H   UNL     1       9.190  -6.616  24.657  0.00  0.00    +0.000 HD
ENDBRANCH   2  26
TORSDOF 6
ENDMDL
MODEL 9
REMARK VINA RESULT:      -6.1      1.831      4.489
REMARK  Name = 
REMARK  6 active torsions:
REMARK  status: ('A' for Active; 'I' for Inactive)
REMARK    1  A    between atoms: C_3  and  C_9
REMARK    2  A    between atoms: C_4  and  O_8
REMARK    3  A    between atoms: C_6  and  O_7
REMARK    4  A    between atoms: C_10  and  O_22
REMARK    5  A    between atoms: C_14  and  O_21
REMARK    6  A    between atoms: C_16  and  O_20
REMARK                            x       y       z     vdW  Elec       q    Type
REMARK                         _______ _______ _______ _____ _____    ______ ____
ROOT
ATOM      1  C   UNL     1       6.418  -2.204  23.919  0.00  0.00    +0.000 A 
ATOM      2  C   UNL     1       6.563  -2.330  22.583  0.00  0.00    +0.000 A 
ATOM      3  C   UNL     1       5.754  -3.484  22.016  0.00  0.00    +0.000 A 
ATOM      4  O   UNL     1       5.797  -3.833  20.845  0.00  0.00    +0.000 OA
ATOM      5  C   UNL     1       5.061  -4.341  23.013  0.00  0.00    +0.000 A 
ATOM      6  C   UNL     1       4.977  -5.722  22.884  0.00  0.00    +0.000 A 
ATOM      7  C   UNL     1       4.577  -6.496  23.977  0.00  0.00    +0.000 A 
ATOM      8  C   UNL     1       4.224  -5.868  25.174  0.00  0.00    +0.000 A 
ATOM      9  C   UNL     1       4.248  -4.486  25.297  0.00  0.00    +0.000 A 
ATOM     10  C   UNL     1       4.724  -3.742  24.223  0.00  0.00    +0.000 A 
ATOM     11  O   UNL     1       5.125  -2.441  24.448  0.00  0.00    +0.000 OA
ENDROOT
BRANCH   1  14
ATOM     12  C   UNL     1       8.235  -5.101  25.265  0.00  0.00    +0.000 A 
ATOM     13  C   UNL     1       8.101  -4.007  24.405  0.00  0.00    +0.000 A 
ATOM     14  C   UNL     1       7.461  -2.825  24.848  0.00  0.00    +0.000 A 
ATOM     15  C   UNL     1       7.262  -2.680  26.233  0.00  0.00    +0.000 A 
ATOM     16  C   UNL     1       7.388  -3.771  27.092  0.00  0.00    +0.000 A 
ATOM     17  C   UNL     1       7.798  -4.994  26.577  0.00  0.00    +0.000 A 
BRANCH  15  18
ATOM     18  O   UNL     1       6.798  -1.516  26.782  0.00  0.00    +0.000 OA
ATOM     19  H   UNL     1       6.966  -0.802  26.143  0.00  0.00    +0.000 HD
ENDBRANCH  15  18
BRANCH  17  20
ATOM     20  O   UNL     1       7.728  -6.134  27.322  0.00  0.00    +0.000 OA
ATOM     21  H   UNL     1       6.973  -6.655  26.997  0.00  0.00    +0.000 HD
ENDBRANCH  17  20
ENDBRANCH   1  14
BRANCH   8  22
ATOM     22  O   UNL     1       3.941  -6.591  26.297  0.00  0.00    +0.000 OA
ATOM     23  H   UNL     1       3.935  -7.535  26.058  0.00  0.00    +0.000 HD
ENDBRANCH   8  22
BRANCH   6  24
ATOM     24  O   UNL     1       5.390  -6.388  21.762  0.00  0.00    +0.000 OA
ATOM     25  H   UNL     1       6.213  -6.881  21.984  0.00  0.00    +0.000 HD
ENDBRANCH   6  24
BRANCH   2  26
ATOM     26  O   UNL     1       7.699  -1.957  21.892  0.00  0.00    +0.000 OA
ATOM     27  H   UNL     1       8.376  -2.627  22.093  0.00  0.00    +0.000 HD
ENDBRANCH   2  26
TORSDOF 6
ENDMDL
