MODEL 1
REMARK VINA RESULT:      -8.1      0.000      0.000
REMARK  Name = 
REMARK  21 active torsions:
REMARK  status: ('A' for Active; 'I' for Inactive)
REMARK    1  A    between atoms: C_2  and  C_10
REMARK    2  A    between atoms: C_4  and  O_9
REMARK    3  A    between atoms: C_5  and  O_8
REMARK    4  A    between atoms: C_6  and  O_7
REMARK    5  A    between atoms: C_10  and  O_12
REMARK    6  A    between atoms: O_12  and  C_13
REMARK    7  A    between atoms: C_13  and  C_14
REMARK    8  A    between atoms: C_15  and  O_45
REMARK    9  A    between atoms: C_16  and  O_33
REMARK   10  A    between atoms: C_17  and  O_32
REMARK   11  A    between atoms: C_18  and  O_20
REMARK   12  A    between atoms: O_20  and  C_21
REMARK   13  A    between atoms: C_21  and  C_23
REMARK   14  A    between atoms: C_25  and  O_31
REMARK   15  A    between atoms: C_26  and  O_30
REMARK   16  A    between atoms: C_27  and  O_29
REMARK   17  A    between atoms: O_33  and  C_34
REMARK   18  A    between atoms: C_34  and  C_36
REMARK   19  A    between atoms: C_38  and  O_44
REMARK   20  A    between atoms: C_39  and  O_43
REMARK   21  A    between atoms: C_40  and  O_42
REMARK                            x       y       z     vdW  Elec       q    Type
REMARK                         _______ _______ _______ _____ _____    ______ ____
ROOT
ATOM      1  C   UNL     1       9.214  -2.081  23.188  0.00  0.00    +0.000 C 
ATOM      2  C   UNL     1      10.123  -0.875  22.908  0.00  0.00    +0.000 C 
ATOM      3  C   UNL     1       9.407   0.417  23.355  0.00  0.00    +0.000 C 
ATOM      4  C   UNL     1       9.029   0.324  24.843  0.00  0.00    +0.000 C 
ATOM      5  C   UNL     1       8.190  -0.954  25.087  0.00  0.00    +0.000 C 
ATOM      6  O   UNL     1       8.867  -2.117  24.583  0.00  0.00    +0.000 OA
ENDROOT
BRANCH   2   7
ATOM      7  O   UNL     1      10.531  -0.880  21.541  0.00  0.00    +0.000 OA
ATOM      8  H   UNL     1       9.745  -0.973  20.964  0.00  0.00    +0.000 HD
ENDBRANCH   2   7
BRANCH   4   9
ATOM      9  O   UNL     1      10.216   0.331  25.660  0.00  0.00    +0.000 OA
ATOM     10  H   UNL     1      10.030  -0.170  26.475  0.00  0.00    +0.000 HD
ENDBRANCH   4   9
BRANCH   3  11
ATOM     11  O   UNL     1      10.232   1.580  23.137  0.00  0.00    +0.000 OA
BRANCH  11  12
ATOM     12  C   UNL     1       9.552   2.748  23.088  0.00  0.00    +0.000 C 
ATOM     13  O   UNL     1       8.352   2.854  22.869  0.00  0.00    +0.000 OA
BRANCH  12  14
ATOM     14  C   UNL     1      10.427   3.906  23.379  0.00  0.00    +0.000 A 
ATOM     15  C   UNL     1       9.857   4.985  24.078  0.00  0.00    +0.000 A 
ATOM     16  C   UNL     1      10.673   6.021  24.510  0.00  0.00    +0.000 A 
ATOM     17  C   UNL     1      12.036   5.996  24.235  0.00  0.00    +0.000 A 
ATOM     18  C   UNL     1      12.589   4.945  23.514  0.00  0.00    +0.000 A 
ATOM     19  C   UNL     1      11.795   3.896  23.072  0.00  0.00    +0.000 A 
BRANCH  16  20
ATOM     20  O   UNL     1      10.188   7.065  25.248  0.00  0.00    +0.000 OA
ATOM     21  H   UNL     1       9.226   7.119  25.108  0.00  0.00    +0.000 HD
ENDBRANCH  16  20
BRANCH  17  22
ATOM     22  O   UNL     1      12.855   6.989  24.697  0.00  0.00    +0.000 OA
ATOM     23  H   UNL     1      13.119   6.686  25.591  0.00  0.00    +0.000 HD
ENDBRANCH  17  22
BRANCH  18  24
ATOM     24  O   UNL     1      13.931   4.913  23.272  0.00  0.00    +0.000 OA
ATOM     25  H   UNL     1      14.140   3.964  23.149  0.00  0.00    +0.000 HD
ENDBRANCH  18  24
ENDBRANCH  12  14
ENDBRANCH  11  12
ENDBRANCH   3  11
BRANCH   5  26
ATOM     26  O   UNL     1       8.022  -1.172  26.492  0.00  0.00    +0.000 OA
BRANCH  26  27
ATOM     27  C   UNL     1       6.751  -1.348  26.921  0.00  0.00    +0.000 C 
ATOM     28  O   UNL     1       5.944  -0.464  27.132  0.00  0.00    +0.000 OA
BRANCH  27  29
ATOM     29  C   UNL     1       6.471  -2.804  27.087  0.00  0.00    +0.000 A 
ATOM     30  C   UNL     1       5.194  -3.192  27.537  0.00  0.00    +0.000 A 
ATOM     31  C   UNL     1       4.904  -4.545  27.681  0.00  0.00    +0.000 A 
ATOM     32  C   UNL     1       5.869  -5.502  27.378  0.00  0.00    +0.000 A 
ATOM     33  C   UNL     1       7.129  -5.119  26.946  0.00  0.00    +0.000 A 
ATOM     34  C   UNL     1       7.437  -3.779  26.789  0.00  0.00    +0.000 A 
BRANCH  31  35
ATOM     35  O   UNL     1       3.686  -4.989  28.111  0.00  0.00    +0.000 OA
ATOM     36  H   UNL     1       3.144  -4.217  28.350  0.00  0.00    +0.000 HD
ENDBRANCH  31  35
BRANCH  33  37
ATOM     37  O   UNL     1       8.072  -6.055  26.650  0.00  0.00    +0.000 OA
ATOM     38  H   UNL     1       8.435  -5.779  25.783  0.00  0.00    +0.000 HD
ENDBRANCH  33  37
BRANCH  32  39
ATOM     39  O   UNL     1       5.594  -6.837  27.522  0.00  0.00    +0.000 OA
ATOM     40  H   UNL     1       5.069  -6.890  28.346  0.00  0.00    +0.000 HD
ENDBRANCH  32  39
ENDBRANCH  27  29
ENDBRANCH  26  27
ENDBRANCH   5  26
BRANCH   1  41
ATOM     41  C   UNL     1       7.978  -2.132  22.258  0.00  0.00    +0.000 C 
BRANCH  41  42
ATOM     42  O   UNL     1       6.860  -2.757  22.919  0.00  0.00    +0.000 OA
BRANCH  42  43
ATOM     43  C   UNL     1       6.691  -4.070  22.621  0.00  0.00    +0.000 C 
ATOM     44  O   UNL     1       7.414  -4.727  21.890  0.00  0.00    +0.000 OA
BRANCH  43  46
ATOM     45  C   UNL     1       4.578  -3.733  23.852  0.00  0.00    +0.000 A 
ATOM     46  C   UNL     1       5.524  -4.641  23.344  0.00  0.00    +0.000 A 
ATOM     47  C   UNL     1       5.321  -6.025  23.493  0.00  0.00    +0.000 A 
ATOM     48  C   UNL     1       4.157  -6.472  24.115  0.00  0.00    +0.000 A 
ATOM     49  C   UNL     1       3.228  -5.571  24.616  0.00  0.00    +0.000 A 
ATOM     50  C   UNL     1       3.441  -4.208  24.482  0.00  0.00    +0.000 A 
BRANCH  48  51
ATOM     51  O   UNL     1       3.863  -7.803  24.218  0.00  0.00    +0.000 OA
ATOM     52  H   UNL     1       3.734  -8.129  23.308  0.00  0.00    +0.000 HD
ENDBRANCH  48  51
BRANCH  49  53
ATOM     53  O   UNL     1       2.077  -6.013  25.211  0.00  0.00    +0.000 OA
ATOM     54  H   UNL     1       2.247  -6.957  25.405  0.00  0.00    +0.000 HD
ENDBRANCH  49  53
BRANCH  50  55
ATOM     55  O   UNL     1       2.512  -3.323  24.950  0.00  0.00    +0.000 OA
ATOM     56  H   UNL     1       2.918  -2.441  24.821  0.00  0.00    +0.000 HD
ENDBRANCH  50  55
ENDBRANCH  43  46
ENDBRANCH  42  43
ENDBRANCH  41  42
ENDBRANCH   1  41
TORSDOF 21
ENDMDL
MODEL 2
REMARK VINA RESULT:      -8.1      0.553      1.833
REMARK  Name = 
REMARK  21 active torsions:
REMARK  status: ('A' for Active; 'I' for Inactive)
REMARK    1  A    between atoms: C_2  and  C_10
REMARK    2  A    between atoms: C_4  and  O_9
REMARK    3  A    between atoms: C_5  and  O_8
REMARK    4  A    between atoms: C_6  and  O_7
REMARK    5  A    between atoms: C_10  and  O_12
REMARK    6  A    between atoms: O_12  and  C_13
REMARK    7  A    between atoms: C_13  and  C_14
REMARK    8  A    between atoms: C_15  and  O_45
REMARK    9  A    between atoms: C_16  and  O_33
REMARK   10  A    between atoms: C_17  and  O_32
REMARK   11  A    between atoms: C_18  and  O_20
REMARK   12  A    between atoms: O_20  and  C_21
REMARK   13  A    between atoms: C_21  and  C_23
REMARK   14  A    between atoms: C_25  and  O_31
REMARK   15  A    between atoms: C_26  and  O_30
REMARK   16  A    between atoms: C_27  and  O_29
REMARK   17  A    between atoms: O_33  and  C_34
REMARK   18  A    between atoms: C_34  and  C_36
REMARK   19  A    between atoms: C_38  and  O_44
REMARK   20  A    between atoms: C_39  and  O_43
REMARK   21  A    between atoms: C_40  and  O_42
REMARK                            x       y       z     vdW  Elec       q    Type
REMARK                         _______ _______ _______ _____ _____    ______ ____
ROOT
ATOM      1  C   UNL     1       9.183  -2.380  23.237  0.00  0.00    +0.000 C 
ATOM      2  C   UNL     1      10.110  -1.195  22.927  0.00  0.00    +0.000 C 
ATOM      3  C   UNL     1       9.377   0.123  23.254  0.00  0.00    +0.000 C 
ATOM      4  C   UNL     1       8.924   0.125  24.724  0.00  0.00    +0.000 C 
ATOM      5  C   UNL     1       8.069  -1.133  25.006  0.00  0.00    +0.000 C 
ATOM      6  O   UNL     1       8.766  -2.326  24.612  0.00  0.00    +0.000 OA
ENDROOT
BRANCH   2   7
ATOM      7  O   UNL     1      10.586  -1.288  21.586  0.00  0.00    +0.000 OA
ATOM      8  H   UNL     1      10.007  -1.889  21.072  0.00  0.00    +0.000 HD
ENDBRANCH   2   7
BRANCH   4   9
ATOM      9  O   UNL     1      10.069   0.184  25.597  0.00  0.00    +0.000 OA
ATOM     10  H   UNL     1      10.843  -0.155  25.110  0.00  0.00    +0.000 HD
ENDBRANCH   4   9
BRANCH   3  11
ATOM     11  O   UNL     1      10.217   1.269  23.004  0.00  0.00    +0.000 OA
BRANCH  11  12
ATOM     12  C   UNL     1       9.547   2.436  22.869  0.00  0.00    +0.000 C 
ATOM     13  O   UNL     1       8.416   2.549  22.413  0.00  0.00    +0.000 OA
BRANCH  12  14
ATOM     14  C   UNL     1      10.327   3.581  23.387  0.00  0.00    +0.000 A 
ATOM     15  C   UNL     1      11.717   3.566  23.170  0.00  0.00    +0.000 A 
ATOM     16  C   UNL     1      12.468   4.686  23.497  0.00  0.00    +0.000 A 
ATOM     17  C   UNL     1      11.851   5.802  24.050  0.00  0.00    +0.000 A 
ATOM     18  C   UNL     1      10.483   5.801  24.295  0.00  0.00    +0.000 A 
ATOM     19  C   UNL     1       9.709   4.694  23.976  0.00  0.00    +0.000 A 
BRANCH  16  20
ATOM     20  O   UNL     1      13.812   4.753  23.251  0.00  0.00    +0.000 OA
ATOM     21  H   UNL     1      13.987   4.340  22.386  0.00  0.00    +0.000 HD
ENDBRANCH  16  20
BRANCH  17  22
ATOM     22  O   UNL     1      12.576   6.927  24.332  0.00  0.00    +0.000 OA
ATOM     23  H   UNL     1      12.523   7.459  23.510  0.00  0.00    +0.000 HD
ENDBRANCH  17  22
BRANCH  18  24
ATOM     24  O   UNL     1       9.880   6.909  24.812  0.00  0.00    +0.000 OA
ATOM     25  H   UNL     1       9.347   7.270  24.075  0.00  0.00    +0.000 HD
ENDBRANCH  18  24
ENDBRANCH  12  14
ENDBRANCH  11  12
ENDBRANCH   3  11
BRANCH   5  26
ATOM     26  O   UNL     1       7.830  -1.261  26.412  0.00  0.00    +0.000 OA
BRANCH  26  27
ATOM     27  C   UNL     1       6.546  -1.480  26.781  0.00  0.00    +0.000 C 
ATOM     28  O   UNL     1       5.666  -0.643  26.823  0.00  0.00    +0.000 OA
BRANCH  27  29
ATOM     29  C   UNL     1       6.359  -2.920  27.122  0.00  0.00    +0.000 A 
ATOM     30  C   UNL     1       5.144  -3.313  27.718  0.00  0.00    +0.000 A 
ATOM     31  C   UNL     1       4.939  -4.654  28.028  0.00  0.00    +0.000 A 
ATOM     32  C   UNL     1       5.926  -5.595  27.744  0.00  0.00    +0.000 A 
ATOM     33  C   UNL     1       7.125  -5.206  27.168  0.00  0.00    +0.000 A 
ATOM     34  C   UNL     1       7.347  -3.879  26.846  0.00  0.00    +0.000 A 
BRANCH  31  35
ATOM     35  O   UNL     1       3.784  -5.102  28.605  0.00  0.00    +0.000 OA
ATOM     36  H   UNL     1       3.033  -4.664  28.169  0.00  0.00    +0.000 HD
ENDBRANCH  31  35
BRANCH  33  37
ATOM     37  O   UNL     1       8.089  -6.126  26.892  0.00  0.00    +0.000 OA
ATOM     38  H   UNL     1       8.594  -5.743  26.146  0.00  0.00    +0.000 HD
ENDBRANCH  33  37
BRANCH  32  39
ATOM     39  O   UNL     1       5.734  -6.917  28.050  0.00  0.00    +0.000 OA
ATOM     40  H   UNL     1       5.182  -6.903  28.859  0.00  0.00    +0.000 HD
ENDBRANCH  32  39
ENDBRANCH  27  29
ENDBRANCH  26  27
ENDBRANCH   5  26
BRANCH   1  41
ATOM     41  C   UNL     1       7.994  -2.490  22.251  0.00  0.00    +0.000 C 
BRANCH  41  42
ATOM     42  O   UNL     1       7.469  -3.832  22.222  0.00  0.00    +0.000 OA
BRANCH  42  43
ATOM     43  C   UNL     1       6.216  -3.936  21.715  0.00  0.00    +0.000 C 
ATOM     44  O   UNL     1       5.904  -3.724  20.555  0.00  0.00    +0.000 OA
BRANCH  43  46
ATOM     45  C   UNL     1       5.187  -5.778  22.997  0.00  0.00    +0.000 A 
ATOM     46  C   UNL     1       5.251  -4.395  22.750  0.00  0.00    +0.000 A 
ATOM     47  C   UNL     1       4.455  -3.510  23.497  0.00  0.00    +0.000 A 
ATOM     48  C   UNL     1       3.637  -4.023  24.502  0.00  0.00    +0.000 A 
ATOM     49  C   UNL     1       3.577  -5.389  24.740  0.00  0.00    +0.000 A 
ATOM     50  C   UNL     1       4.351  -6.259  23.989  0.00  0.00    +0.000 A 
BRANCH  48  51
ATOM     51  O   UNL     1       2.901  -3.209  25.316  0.00  0.00    +0.000 OA
ATOM     52  H   UNL     1       2.955  -3.591  26.212  0.00  0.00    +0.000 HD
ENDBRANCH  48  51
BRANCH  49  53
ATOM     53  O   UNL     1       2.787  -5.889  25.739  0.00  0.00    +0.000 OA
ATOM     54  H   UNL     1       3.167  -6.768  25.939  0.00  0.00    +0.000 HD
ENDBRANCH  49  53
BRANCH  50  55
ATOM     55  O   UNL     1       4.312  -7.600  24.244  0.00  0.00    +0.000 OA
ATOM     56  H   UNL     1       4.152  -8.017  23.372  0.00  0.00    +0.000 HD
ENDBRANCH  50  55
ENDBRANCH  43  46
ENDBRANCH  42  43
ENDBRANCH  41  42
ENDBRANCH   1  41
TORSDOF 21
ENDMDL
MODEL 3
REMARK VINA RESULT:      -8.1      1.834      3.744
REMARK  Name = 
REMARK  21 active torsions:
REMARK  status: ('A' for Active; 'I' for Inactive)
REMARK    1  A    between atoms: C_2  and  C_10
REMARK    2  A    between atoms: C_4  and  O_9
REMARK    3  A    between atoms: C_5  and  O_8
REMARK    4  A    between atoms: C_6  and  O_7
REMARK    5  A    between atoms: C_10  and  O_12
REMARK    6  A    between atoms: O_12  and  C_13
REMARK    7  A    between atoms: C_13  and  C_14
REMARK    8  A    between atoms: C_15  and  O_45
REMARK    9  A    between atoms: C_16  and  O_33
REMARK   10  A    between atoms: C_17  and  O_32
REMARK   11  A    between atoms: C_18  and  O_20
REMARK   12  A    between atoms: O_20  and  C_21
REMARK   13  A    between atoms: C_21  and  C_23
REMARK   14  A    between atoms: C_25  and  O_31
REMARK   15  A    between atoms: C_26  and  O_30
REMARK   16  A    between atoms: C_27  and  O_29
REMARK   17  A    between atoms: O_33  and  C_34
REMARK   18  A    between atoms: C_34  and  C_36
REMARK   19  A    between atoms: C_38  and  O_44
REMARK   20  A    between atoms: C_39  and  O_43
REMARK   21  A    between atoms: C_40  and  O_42
REMARK                            x       y       z     vdW  Elec       q    Type
REMARK                         _______ _______ _______ _____ _____    ______ ____
ROOT
ATOM      1  C   UNL     1       9.266  -2.288  23.248  0.00  0.00    +0.000 C 
ATOM      2  C   UNL     1      10.182  -1.112  22.876  0.00  0.00    +0.000 C 
ATOM      3  C   UNL     1       9.483   0.213  23.242  0.00  0.00    +0.000 C 
ATOM      4  C   UNL     1       9.122   0.225  24.738  0.00  0.00    +0.000 C 
ATOM      5  C   UNL     1       8.276  -1.025  25.078  0.00  0.00    +0.000 C 
ATOM      6  O   UNL     1       8.936  -2.226  24.646  0.00  0.00    +0.000 OA
ENDROOT
BRANCH   2   7
ATOM      7  O   UNL     1      10.573  -1.214  21.508  0.00  0.00    +0.000 OA
ATOM      8  H   UNL     1      10.543  -2.152  21.226  0.00  0.00    +0.000 HD
ENDBRANCH   2   7
BRANCH   4   9
ATOM      9  O   UNL     1      10.319   0.276  25.538  0.00  0.00    +0.000 OA
ATOM     10  H   UNL     1      11.088   0.293  24.938  0.00  0.00    +0.000 HD
ENDBRANCH   4   9
BRANCH   3  11
ATOM     11  O   UNL     1      10.315   1.351  22.936  0.00  0.00    +0.000 OA
BRANCH  11  12
ATOM     12  C   UNL     1       9.645   2.520  22.817  0.00  0.00    +0.000 C 
ATOM     13  O   UNL     1       8.518   2.640  22.353  0.00  0.00    +0.000 OA
BRANCH  12  14
ATOM     14  C   UNL     1      10.420   3.656  23.362  0.00  0.00    +0.000 A 
ATOM     15  C   UNL     1      11.809   3.654  23.143  0.00  0.00    +0.000 A 
ATOM     16  C   UNL     1      12.555   4.770  23.496  0.00  0.00    +0.000 A 
ATOM     17  C   UNL     1      11.932   5.868  24.078  0.00  0.00    +0.000 A 
ATOM     18  C   UNL     1      10.565   5.853  24.324  0.00  0.00    +0.000 A 
ATOM     19  C   UNL     1       9.796   4.750  23.979  0.00  0.00    +0.000 A 
BRANCH  16  20
ATOM     20  O   UNL     1      13.897   4.851  23.250  0.00  0.00    +0.000 OA
ATOM     21  H   UNL     1      14.086   4.380  22.419  0.00  0.00    +0.000 HD
ENDBRANCH  16  20
BRANCH  17  22
ATOM     22  O   UNL     1      12.651   6.990  24.387  0.00  0.00    +0.000 OA
ATOM     23  H   UNL     1      12.280   7.284  25.245  0.00  0.00    +0.000 HD
ENDBRANCH  17  22
BRANCH  18  24
ATOM     24  O   UNL     1       9.956   6.945  24.869  0.00  0.00    +0.000 OA
ATOM     25  H   UNL     1      10.037   6.819  25.836  0.00  0.00    +0.000 HD
ENDBRANCH  18  24
ENDBRANCH  12  14
ENDBRANCH  11  12
ENDBRANCH   3  11
BRANCH   5  26
ATOM     26  O   UNL     1       8.123  -1.146  26.496  0.00  0.00    +0.000 OA
BRANCH  26  27
ATOM     27  C   UNL     1       6.853  -1.124  26.964  0.00  0.00    +0.000 C 
ATOM     28  O   UNL     1       6.104  -2.078  27.031  0.00  0.00    +0.000 OA
BRANCH  27  29
ATOM     29  C   UNL     1       6.503   0.258  27.405  0.00  0.00    +0.000 A 
ATOM     30  C   UNL     1       5.321   0.839  26.906  0.00  0.00    +0.000 A 
ATOM     31  C   UNL     1       4.965   2.120  27.318  0.00  0.00    +0.000 A 
ATOM     32  C   UNL     1       5.769   2.813  28.219  0.00  0.00    +0.000 A 
ATOM     33  C   UNL     1       6.938   2.244  28.700  0.00  0.00    +0.000 A 
ATOM     34  C   UNL     1       7.308   0.970  28.309  0.00  0.00    +0.000 A 
BRANCH  31  35
ATOM     35  O   UNL     1       3.831   2.740  26.874  0.00  0.00    +0.000 OA
ATOM     36  H   UNL     1       3.517   3.343  27.569  0.00  0.00    +0.000 HD
ENDBRANCH  31  35
BRANCH  33  37
ATOM     37  O   UNL     1       7.725   2.923  29.579  0.00  0.00    +0.000 OA
ATOM     38  H   UNL     1       8.576   2.438  29.579  0.00  0.00    +0.000 HD
ENDBRANCH  33  37
BRANCH  32  39
ATOM     39  O   UNL     1       5.428   4.076  28.626  0.00  0.00    +0.000 OA
ATOM     40  H   UNL     1       5.530   4.055  29.599  0.00  0.00    +0.000 HD
ENDBRANCH  32  39
ENDBRANCH  27  29
ENDBRANCH  26  27
ENDBRANCH   5  26
BRANCH   1  41
ATOM     41  C   UNL     1       8.018  -2.391  22.338  0.00  0.00    +0.000 C 
BRANCH  41  42
ATOM     42  O   UNL     1       7.561  -3.754  22.241  0.00  0.00    +0.000 OA
BRANCH  42  43
ATOM     43  C   UNL     1       6.218  -3.907  22.345  0.00  0.00    +0.000 C 
ATOM     44  O   UNL     1       5.388  -3.370  21.630  0.00  0.00    +0.000 OA
BRANCH  43  46
ATOM     45  C   UNL     1       6.382  -4.599  24.710  0.00  0.00    +0.000 A 
ATOM     46  C   UNL     1       5.866  -4.864  23.428  0.00  0.00    +0.000 A 
ATOM     47  C   UNL     1       5.021  -5.970  23.225  0.00  0.00    +0.000 A 
ATOM     48  C   UNL     1       4.681  -6.768  24.315  0.00  0.00    +0.000 A 
ATOM     49  C   UNL     1       5.194  -6.502  25.577  0.00  0.00    +0.000 A 
ATOM     50  C   UNL     1       6.040  -5.421  25.768  0.00  0.00    +0.000 A 
BRANCH  48  51
ATOM     51  O   UNL     1       3.802  -7.807  24.199  0.00  0.00    +0.000 OA
ATOM     52  H   UNL     1       3.847  -8.106  23.271  0.00  0.00    +0.000 HD
ENDBRANCH  48  51
BRANCH  49  53
ATOM     53  O   UNL     1       4.844  -7.277  26.650  0.00  0.00    +0.000 OA
ATOM     54  H   UNL     1       3.866  -7.259  26.658  0.00  0.00    +0.000 HD
ENDBRANCH  49  53
BRANCH  50  55
ATOM     55  O   UNL     1       6.521  -5.145  27.016  0.00  0.00    +0.000 OA
ATOM     56  H   UNL     1       5.782  -4.696  27.477  0.00  0.00    +0.000 HD
ENDBRANCH  50  55
ENDBRANCH  43  46
ENDBRANCH  42  43
ENDBRANCH  41  42
ENDBRANCH   1  41
TORSDOF 21
ENDMDL
MODEL 4
REMARK VINA RESULT:      -8.0      1.037      2.409
REMARK  Name = 
REMARK  21 active torsions:
REMARK  status: ('A' for Active; 'I' for Inactive)
REMARK    1  A    between atoms: C_2  and  C_10
REMARK    2  A    between atoms: C_4  and  O_9
REMARK    3  A    between atoms: C_5  and  O_8
REMARK    4  A    between atoms: C_6  and  O_7
REMARK    5  A    between atoms: C_10  and  O_12
REMARK    6  A    between atoms: O_12  and  C_13
REMARK    7  A    between atoms: C_13  and  C_14
REMARK    8  A    between atoms: C_15  and  O_45
REMARK    9  A    between atoms: C_16  and  O_33
REMARK   10  A    between atoms: C_17  and  O_32
REMARK   11  A    between atoms: C_18  and  O_20
REMARK   12  A    between atoms: O_20  and  C_21
REMARK   13  A    between atoms: C_21  and  C_23
REMARK   14  A    between atoms: C_25  and  O_31
REMARK   15  A    between atoms: C_26  and  O_30
REMARK   16  A    between atoms: C_27  and  O_29
REMARK   17  A    between atoms: O_33  and  C_34
REMARK   18  A    between atoms: C_34  and  C_36
REMARK   19  A    between atoms: C_38  and  O_44
REMARK   20  A    between atoms: C_39  and  O_43
REMARK   21  A    between atoms: C_40  and  O_42
REMARK                            x       y       z     vdW  Elec       q    Type
REMARK                         _______ _______ _______ _____ _____    ______ ____
ROOT
ATOM      1  C   UNL     1       9.177  -2.370  23.480  0.00  0.00    +0.000 C 
ATOM      2  C   UNL     1      10.149  -1.228  23.147  0.00  0.00    +0.000 C 
ATOM      3  C   UNL     1       9.426   0.123  23.323  0.00  0.00    +0.000 C 
ATOM      4  C   UNL     1       8.874   0.245  24.754  0.00  0.00    +0.000 C 
ATOM      5  C   UNL     1       7.974  -0.973  25.069  0.00  0.00    +0.000 C 
ATOM      6  O   UNL     1       8.669  -2.205  24.814  0.00  0.00    +0.000 OA
ENDROOT
BRANCH   2   7
ATOM      7  O   UNL     1      10.713  -1.431  21.853  0.00  0.00    +0.000 OA
ATOM      8  H   UNL     1      10.260  -0.855  21.202  0.00  0.00    +0.000 HD
ENDBRANCH   2   7
BRANCH   4   9
ATOM      9  O   UNL     1       9.958   0.350  25.697  0.00  0.00    +0.000 OA
ATOM     10  H   UNL     1       9.595   0.234  26.594  0.00  0.00    +0.000 HD
ENDBRANCH   4   9
BRANCH   3  11
ATOM     11  O   UNL     1      10.306   1.232  23.047  0.00  0.00    +0.000 OA
BRANCH  11  12
ATOM     12  C   UNL     1       9.673   2.403  22.803  0.00  0.00    +0.000 C 
ATOM     13  O   UNL     1       8.594   2.514  22.234  0.00  0.00    +0.000 OA
BRANCH  12  14
ATOM     14  C   UNL     1      10.420   3.556  23.351  0.00  0.00    +0.000 A 
ATOM     15  C   UNL     1      11.809   3.589  23.132  0.00  0.00    +0.000 A 
ATOM     16  C   UNL     1      12.527   4.722  23.488  0.00  0.00    +0.000 A 
ATOM     17  C   UNL     1      11.877   5.803  24.074  0.00  0.00    +0.000 A 
ATOM     18  C   UNL     1      10.511   5.753  24.321  0.00  0.00    +0.000 A 
ATOM     19  C   UNL     1       9.770   4.632  23.973  0.00  0.00    +0.000 A 
BRANCH  16  20
ATOM     20  O   UNL     1      13.866   4.837  23.242  0.00  0.00    +0.000 OA
ATOM     21  H   UNL     1      14.165   4.031  22.785  0.00  0.00    +0.000 HD
ENDBRANCH  16  20
BRANCH  17  22
ATOM     22  O   UNL     1      12.568   6.941  24.386  0.00  0.00    +0.000 OA
ATOM     23  H   UNL     1      12.147   7.259  25.213  0.00  0.00    +0.000 HD
ENDBRANCH  17  22
BRANCH  18  24
ATOM     24  O   UNL     1       9.875   6.828  24.870  0.00  0.00    +0.000 OA
ATOM     25  H   UNL     1       9.179   7.063  24.223  0.00  0.00    +0.000 HD
ENDBRANCH  18  24
ENDBRANCH  12  14
ENDBRANCH  11  12
ENDBRANCH   3  11
BRANCH   5  26
ATOM     26  O   UNL     1       7.637  -0.990  26.460  0.00  0.00    +0.000 OA
BRANCH  26  27
ATOM     27  C   UNL     1       6.413  -0.511  26.784  0.00  0.00    +0.000 C 
ATOM     28  O   UNL     1       6.139   0.654  26.997  0.00  0.00    +0.000 OA
BRANCH  27  29
ATOM     29  C   UNL     1       5.430  -1.632  26.830  0.00  0.00    +0.000 A 
ATOM     30  C   UNL     1       5.345  -2.399  28.009  0.00  0.00    +0.000 A 
ATOM     31  C   UNL     1       4.423  -3.438  28.081  0.00  0.00    +0.000 A 
ATOM     32  C   UNL     1       3.589  -3.710  26.998  0.00  0.00    +0.000 A 
ATOM     33  C   UNL     1       3.681  -2.961  25.835  0.00  0.00    +0.000 A 
ATOM     34  C   UNL     1       4.587  -1.919  25.744  0.00  0.00    +0.000 A 
BRANCH  31  35
ATOM     35  O   UNL     1       4.289  -4.219  29.194  0.00  0.00    +0.000 OA
ATOM     36  H   UNL     1       4.220  -3.638  29.971  0.00  0.00    +0.000 HD
ENDBRANCH  31  35
BRANCH  33  37
ATOM     37  O   UNL     1       2.867  -3.228  24.777  0.00  0.00    +0.000 OA
ATOM     38  H   UNL     1       3.378  -2.942  23.992  0.00  0.00    +0.000 HD
ENDBRANCH  33  37
BRANCH  32  39
ATOM     39  O   UNL     1       2.681  -4.734  27.060  0.00  0.00    +0.000 OA
ATOM     40  H   UNL     1       1.814  -4.300  26.928  0.00  0.00    +0.000 HD
ENDBRANCH  32  39
ENDBRANCH  27  29
ENDBRANCH  26  27
ENDBRANCH   5  26
BRANCH   1  41
ATOM     41  C   UNL     1       8.056  -2.534  22.424  0.00  0.00    +0.000 C 
BRANCH  41  42
ATOM     42  O   UNL     1       7.694  -3.920  22.266  0.00  0.00    +0.000 OA
BRANCH  42  43
ATOM     43  C   UNL     1       6.359  -4.158  22.267  0.00  0.00    +0.000 C 
ATOM     44  O   UNL     1       5.577  -3.799  21.401  0.00  0.00    +0.000 OA
BRANCH  43  46
ATOM     45  C   UNL     1       4.901  -5.881  23.267  0.00  0.00    +0.000 A 
ATOM     46  C   UNL     1       5.955  -4.967  23.447  0.00  0.00    +0.000 A 
ATOM     47  C   UNL     1       6.605  -4.880  24.691  0.00  0.00    +0.000 A 
ATOM     48  C   UNL     1       6.211  -5.734  25.719  0.00  0.00    +0.000 A 
ATOM     49  C   UNL     1       5.169  -6.633  25.535  0.00  0.00    +0.000 A 
ATOM     50  C   UNL     1       4.521  -6.703  24.312  0.00  0.00    +0.000 A 
BRANCH  48  51
ATOM     51  O   UNL     1       6.855  -5.755  26.924  0.00  0.00    +0.000 OA
ATOM     52  H   UNL     1       7.223  -4.861  27.057  0.00  0.00    +0.000 HD
ENDBRANCH  48  51
BRANCH  49  53
ATOM     53  O   UNL     1       4.796  -7.483  26.541  0.00  0.00    +0.000 OA
ATOM     54  H   UNL     1       4.106  -6.995  27.034  0.00  0.00    +0.000 HD
ENDBRANCH  49  53
BRANCH  50  55
ATOM     55  O   UNL     1       3.515  -7.608  24.125  0.00  0.00    +0.000 OA
ATOM     56  H   UNL     1       2.785  -7.293  24.696  0.00  0.00    +0.000 HD
ENDBRANCH  50  55
ENDBRANCH  43  46
ENDBRANCH  42  43
ENDBRANCH  41  42
ENDBRANCH   1  41
TORSDOF 21
ENDMDL
MODEL 5
REMARK VINA RESULT:      -7.9      1.807      3.586
REMARK  Name = 
REMARK  21 active torsions:
REMARK  status: ('A' for Active; 'I' for Inactive)
REMARK    1  A    between atoms: C_2  and  C_10
REMARK    2  A    between atoms: C_4  and  O_9
REMARK    3  A    between atoms: C_5  and  O_8
REMARK    4  A    between atoms: C_6  and  O_7
REMARK    5  A    between atoms: C_10  and  O_12
REMARK    6  A    between atoms: O_12  and  C_13
REMARK    7  A    between atoms: C_13  and  C_14
REMARK    8  A    between atoms: C_15  and  O_45
REMARK    9  A    between atoms: C_16  and  O_33
REMARK   10  A    between atoms: C_17  and  O_32
REMARK   11  A    between atoms: C_18  and  O_20
REMARK   12  A    between atoms: O_20  and  C_21
REMARK   13  A    between atoms: C_21  and  C_23
REMARK   14  A    between atoms: C_25  and  O_31
REMARK   15  A    between atoms: C_26  and  O_30
REMARK   16  A    between atoms: C_27  and  O_29
REMARK   17  A    between atoms: O_33  and  C_34
REMARK   18  A    between atoms: C_34  and  C_36
REMARK   19  A    between atoms: C_38  and  O_44
REMARK   20  A    between atoms: C_39  and  O_43
REMARK   21  A    between atoms: C_40  and  O_42
REMARK                            x       y       z     vdW  Elec       q    Type
REMARK                         _______ _______ _______ _____ _____    ______ ____
ROOT
ATOM      1  C   UNL     1       9.283  -2.171  23.272  0.00  0.00    +0.000 C 
ATOM      2  C   UNL     1      10.162  -0.956  22.938  0.00  0.00    +0.000 C 
ATOM      3  C   UNL     1       9.424   0.335  23.349  0.00  0.00    +0.000 C 
ATOM      4  C   UNL     1       9.066   0.286  24.844  0.00  0.00    +0.000 C 
ATOM      5  C   UNL     1       8.259  -0.999  25.143  0.00  0.00    +0.000 C 
ATOM      6  O   UNL     1       8.954  -2.165  24.671  0.00  0.00    +0.000 OA
ENDROOT
BRANCH   2   7
ATOM      7  O   UNL     1      10.553  -1.002  21.567  0.00  0.00    +0.000 OA
ATOM      8  H   UNL     1      11.199  -0.288  21.385  0.00  0.00    +0.000 HD
ENDBRANCH   2   7
BRANCH   4   9
ATOM      9  O   UNL     1      10.263   0.347  25.644  0.00  0.00    +0.000 OA
ATOM     10  H   UNL     1      10.353   1.254  25.990  0.00  0.00    +0.000 HD
ENDBRANCH   4   9
BRANCH   3  11
ATOM     11  O   UNL     1      10.221   1.506  23.079  0.00  0.00    +0.000 OA
BRANCH  11  12
ATOM     12  C   UNL     1       9.518   2.661  23.023  0.00  0.00    +0.000 C 
ATOM     13  O   UNL     1       8.318   2.744  22.797  0.00  0.00    +0.000 OA
BRANCH  12  14
ATOM     14  C   UNL     1      10.368   3.836  23.319  0.00  0.00    +0.000 A 
ATOM     15  C   UNL     1       9.765   4.917  23.986  0.00  0.00    +0.000 A 
ATOM     16  C   UNL     1      10.554   5.972  24.423  0.00  0.00    +0.000 A 
ATOM     17  C   UNL     1      11.924   5.963  24.183  0.00  0.00    +0.000 A 
ATOM     18  C   UNL     1      12.511   4.909  23.493  0.00  0.00    +0.000 A 
ATOM     19  C   UNL     1      11.744   3.842  23.047  0.00  0.00    +0.000 A 
BRANCH  16  20
ATOM     20  O   UNL     1      10.036   7.019  25.132  0.00  0.00    +0.000 OA
ATOM     21  H   UNL     1      10.760   7.447  25.623  0.00  0.00    +0.000 HD
ENDBRANCH  16  20
BRANCH  17  22
ATOM     22  O   UNL     1      12.717   6.975  24.650  0.00  0.00    +0.000 OA
ATOM     23  H   UNL     1      13.176   7.309  23.851  0.00  0.00    +0.000 HD
ENDBRANCH  17  22
BRANCH  18  24
ATOM     24  O   UNL     1      13.859   4.893  23.287  0.00  0.00    +0.000 OA
ATOM     25  H   UNL     1      14.246   4.757  24.175  0.00  0.00    +0.000 HD
ENDBRANCH  18  24
ENDBRANCH  12  14
ENDBRANCH  11  12
ENDBRANCH   3  11
BRANCH   5  26
ATOM     26  O   UNL     1       8.113  -1.172  26.557  0.00  0.00    +0.000 OA
BRANCH  26  27
ATOM     27  C   UNL     1       6.844  -1.190  27.029  0.00  0.00    +0.000 C 
ATOM     28  O   UNL     1       6.136  -2.173  27.125  0.00  0.00    +0.000 OA
BRANCH  27  29
ATOM     29  C   UNL     1       6.437   0.187  27.433  0.00  0.00    +0.000 A 
ATOM     30  C   UNL     1       5.172   0.657  27.026  0.00  0.00    +0.000 A 
ATOM     31  C   UNL     1       4.764   1.931  27.407  0.00  0.00    +0.000 A 
ATOM     32  C   UNL     1       5.598   2.728  28.187  0.00  0.00    +0.000 A 
ATOM     33  C   UNL     1       6.847   2.270  28.577  0.00  0.00    +0.000 A 
ATOM     34  C   UNL     1       7.271   1.003  28.215  0.00  0.00    +0.000 A 
BRANCH  31  35
ATOM     35  O   UNL     1       3.550   2.446  27.049  0.00  0.00    +0.000 OA
ATOM     36  H   UNL     1       3.647   3.406  26.926  0.00  0.00    +0.000 HD
ENDBRANCH  31  35
BRANCH  33  37
ATOM     37  O   UNL     1       7.662   3.050  29.338  0.00  0.00    +0.000 OA
ATOM     38  H   UNL     1       8.466   3.175  28.794  0.00  0.00    +0.000 HD
ENDBRANCH  33  37
BRANCH  32  39
ATOM     39  O   UNL     1       5.205   3.986  28.563  0.00  0.00    +0.000 OA
ATOM     40  H   UNL     1       5.766   4.586  28.030  0.00  0.00    +0.000 HD
ENDBRANCH  32  39
ENDBRANCH  27  29
ENDBRANCH  26  27
ENDBRANCH   5  26
BRANCH   1  41
ATOM     41  C   UNL     1       8.036  -2.282  22.361  0.00  0.00    +0.000 C 
BRANCH  41  42
ATOM     42  O   UNL     1       7.619  -3.654  22.220  0.00  0.00    +0.000 OA
BRANCH  42  43
ATOM     43  C   UNL     1       6.279  -3.845  22.285  0.00  0.00    +0.000 C 
ATOM     44  O   UNL     1       5.464  -3.423  21.480  0.00  0.00    +0.000 OA
BRANCH  43  46
ATOM     45  C   UNL     1       5.029  -5.760  23.217  0.00  0.00    +0.000 A 
ATOM     46  C   UNL     1       5.909  -4.689  23.453  0.00  0.00    +0.000 A 
ATOM     47  C   UNL     1       6.433  -4.480  24.742  0.00  0.00    +0.000 A 
ATOM     48  C   UNL     1       6.093  -5.368  25.760  0.00  0.00    +0.000 A 
ATOM     49  C   UNL     1       5.223  -6.423  25.521  0.00  0.00    +0.000 A 
ATOM     50  C   UNL     1       4.696  -6.614  24.253  0.00  0.00    +0.000 A 
BRANCH  48  51
ATOM     51  O   UNL     1       6.631  -5.267  27.012  0.00  0.00    +0.000 OA
ATOM     52  H   UNL     1       5.976  -5.647  27.626  0.00  0.00    +0.000 HD
ENDBRANCH  48  51
BRANCH  49  53
ATOM     53  O   UNL     1       4.905  -7.305  26.518  0.00  0.00    +0.000 OA
ATOM     54  H   UNL     1       5.765  -7.670  26.808  0.00  0.00    +0.000 HD
ENDBRANCH  49  53
BRANCH  50  55
ATOM     55  O   UNL     1       3.863  -7.669  24.013  0.00  0.00    +0.000 OA
ATOM     56  H   UNL     1       3.615  -7.584  23.069  0.00  0.00    +0.000 HD
ENDBRANCH  50  55
ENDBRANCH  43  46
ENDBRANCH  42  43
ENDBRANCH  41  42
ENDBRANCH   1  41
TORSDOF 21
ENDMDL
MODEL 6
REMARK VINA RESULT:      -7.9      1.830      2.346
REMARK  Name = 
REMARK  21 active torsions:
REMARK  status: ('A' for Active; 'I' for Inactive)
REMARK    1  A    between atoms: C_2  and  C_10
REMARK    2  A    between atoms: C_4  and  O_9
REMARK    3  A    between atoms: C_5  and  O_8
REMARK    4  A    between atoms: C_6  and  O_7
REMARK    5  A    between atoms: C_10  and  O_12
REMARK    6  A    between atoms: O_12  and  C_13
REMARK    7  A    between atoms: C_13  and  C_14
REMARK    8  A    between atoms: C_15  and  O_45
REMARK    9  A    between atoms: C_16  and  O_33
REMARK   10  A    between atoms: C_17  and  O_32
REMARK   11  A    between atoms: C_18  and  O_20
REMARK   12  A    between atoms: O_20  and  C_21
REMARK   13  A    between atoms: C_21  and  C_23
REMARK   14  A    between atoms: C_25  and  O_31
REMARK   15  A    between atoms: C_26  and  O_30
REMARK   16  A    between atoms: C_27  and  O_29
REMARK   17  A    between atoms: O_33  and  C_34
REMARK   18  A    between atoms: C_34  and  C_36
REMARK   19  A    between atoms: C_38  and  O_44
REMARK   20  A    between atoms: C_39  and  O_43
REMARK   21  A    between atoms: C_40  and  O_42
REMARK                            x       y       z     vdW  Elec       q    Type
REMARK                         _______ _______ _______ _____ _____    ______ ____
ROOT
ATOM      1  C   UNL     1       8.841  -2.910  23.772  0.00  0.00    +0.000 C 
ATOM      2  C   UNL     1       9.828  -1.734  23.725  0.00  0.00    +0.000 C 
ATOM      3  C   UNL     1       9.058  -0.414  23.936  0.00  0.00    +0.000 C 
ATOM      4  C   UNL     1       8.290  -0.458  25.268  0.00  0.00    +0.000 C 
ATOM      5  C   UNL     1       7.378  -1.708  25.301  0.00  0.00    +0.000 C 
ATOM      6  O   UNL     1       8.130  -2.900  25.021  0.00  0.00    +0.000 OA
ENDROOT
BRANCH   2   7
ATOM      7  O   UNL     1      10.589  -1.786  22.519  0.00  0.00    +0.000 OA
ATOM      8  H   UNL     1      10.698  -0.882  22.160  0.00  0.00    +0.000 HD
ENDBRANCH   2   7
BRANCH   4   9
ATOM      9  O   UNL     1       9.212  -0.458  26.375  0.00  0.00    +0.000 OA
ATOM     10  H   UNL     1       8.890  -1.091  27.042  0.00  0.00    +0.000 HD
ENDBRANCH   4   9
BRANCH   3  11
ATOM     11  O   UNL     1       9.946   0.722  23.927  0.00  0.00    +0.000 OA
BRANCH  11  12
ATOM     12  C   UNL     1       9.797   1.542  22.861  0.00  0.00    +0.000 C 
ATOM     13  O   UNL     1      10.182   1.295  21.726  0.00  0.00    +0.000 OA
BRANCH  12  14
ATOM     14  C   UNL     1       9.059   2.775  23.215  0.00  0.00    +0.000 A 
ATOM     15  C   UNL     1       7.994   3.153  22.378  0.00  0.00    +0.000 A 
ATOM     16  C   UNL     1       7.177   4.209  22.754  0.00  0.00    +0.000 A 
ATOM     17  C   UNL     1       7.424   4.895  23.937  0.00  0.00    +0.000 A 
ATOM     18  C   UNL     1       8.498   4.541  24.745  0.00  0.00    +0.000 A 
ATOM     19  C   UNL     1       9.330   3.488  24.392  0.00  0.00    +0.000 A 
BRANCH  16  20
ATOM     20  O   UNL     1       6.089   4.581  22.014  0.00  0.00    +0.000 OA
ATOM     21  H   UNL     1       6.284   5.435  21.588  0.00  0.00    +0.000 HD
ENDBRANCH  16  20
BRANCH  17  22
ATOM     22  O   UNL     1       6.596   5.907  24.339  0.00  0.00    +0.000 OA
ATOM     23  H   UNL     1       5.700   5.596  24.092  0.00  0.00    +0.000 HD
ENDBRANCH  17  22
BRANCH  18  24
ATOM     24  O   UNL     1       8.718   5.200  25.918  0.00  0.00    +0.000 OA
ATOM     25  H   UNL     1       8.686   6.149  25.681  0.00  0.00    +0.000 HD
ENDBRANCH  18  24
ENDBRANCH  12  14
ENDBRANCH  11  12
ENDBRANCH   3  11
BRANCH   5  26
ATOM     26  O   UNL     1       6.831  -1.885  26.612  0.00  0.00    +0.000 OA
BRANCH  26  27
ATOM     27  C   UNL     1       5.530  -2.255  26.671  0.00  0.00    +0.000 C 
ATOM     28  O   UNL     1       4.586  -1.599  26.275  0.00  0.00    +0.000 OA
BRANCH  27  29
ATOM     29  C   UNL     1       5.419  -3.609  27.287  0.00  0.00    +0.000 A 
ATOM     30  C   UNL     1       4.142  -4.068  27.666  0.00  0.00    +0.000 A 
ATOM     31  C   UNL     1       4.012  -5.335  28.226  0.00  0.00    +0.000 A 
ATOM     32  C   UNL     1       5.134  -6.140  28.403  0.00  0.00    +0.000 A 
ATOM     33  C   UNL     1       6.391  -5.683  28.040  0.00  0.00    +0.000 A 
ATOM     34  C   UNL     1       6.544  -4.429  27.475  0.00  0.00    +0.000 A 
BRANCH  31  35
ATOM     35  O   UNL     1       2.803  -5.841  28.613  0.00  0.00    +0.000 OA
ATOM     36  H   UNL     1       2.814  -6.804  28.477  0.00  0.00    +0.000 HD
ENDBRANCH  31  35
BRANCH  33  37
ATOM     37  O   UNL     1       7.489  -6.469  28.214  0.00  0.00    +0.000 OA
ATOM     38  H   UNL     1       7.135  -7.323  28.538  0.00  0.00    +0.000 HD
ENDBRANCH  33  37
BRANCH  32  39
ATOM     39  O   UNL     1       5.015  -7.387  28.957  0.00  0.00    +0.000 OA
ATOM     40  H   UNL     1       5.402  -7.989  28.290  0.00  0.00    +0.000 HD
ENDBRANCH  32  39
ENDBRANCH  27  29
ENDBRANCH  26  27
ENDBRANCH   5  26
BRANCH   1  41
ATOM     41  C   UNL     1       7.900  -2.957  22.543  0.00  0.00    +0.000 C 
BRANCH  41  42
ATOM     42  O   UNL     1       7.345  -4.275  22.367  0.00  0.00    +0.000 OA
BRANCH  42  43
ATOM     43  C   UNL     1       6.090  -4.295  21.856  0.00  0.00    +0.000 C 
ATOM     44  O   UNL     1       5.784  -3.969  20.720  0.00  0.00    +0.000 OA
BRANCH  43  46
ATOM     45  C   UNL     1       4.243  -3.882  23.442  0.00  0.00    +0.000 A 
ATOM     46  C   UNL     1       5.111  -4.816  22.847  0.00  0.00    +0.000 A 
ATOM     47  C   UNL     1       5.002  -6.181  23.167  0.00  0.00    +0.000 A 
ATOM     48  C   UNL     1       4.002  -6.588  24.049  0.00  0.00    +0.000 A 
ATOM     49  C   UNL     1       3.149  -5.662  24.633  0.00  0.00    +0.000 A 
ATOM     50  C   UNL     1       3.273  -4.316  24.327  0.00  0.00    +0.000 A 
BRANCH  48  51
ATOM     51  O   UNL     1       3.792  -7.907  24.337  0.00  0.00    +0.000 OA
ATOM     52  H   UNL     1       4.134  -8.052  25.238  0.00  0.00    +0.000 HD
ENDBRANCH  48  51
BRANCH  49  53
ATOM     53  O   UNL     1       2.157  -6.068  25.483  0.00  0.00    +0.000 OA
ATOM     54  H   UNL     1       1.552  -6.596  24.924  0.00  0.00    +0.000 HD
ENDBRANCH  49  53
BRANCH  50  55
ATOM     55  O   UNL     1       2.414  -3.410  24.881  0.00  0.00    +0.000 OA
ATOM     56  H   UNL     1       1.667  -3.946  25.218  0.00  0.00    +0.000 HD
ENDBRANCH  50  55
ENDBRANCH  43  46
ENDBRANCH  42  43
ENDBRANCH  41  42
ENDBRANCH   1  41
TORSDOF 21
ENDMDL
MODEL 7
REMARK VINA RESULT:      -7.8      1.930      7.495
REMARK  Name = 
REMARK  21 active torsions:
REMARK  status: ('A' for Active; 'I' for Inactive)
REMARK    1  A    between atoms: C_2  and  C_10
REMARK    2  A    between atoms: C_4  and  O_9
REMARK    3  A    between atoms: C_5  and  O_8
REMARK    4  A    between atoms: C_6  and  O_7
REMARK    5  A    between atoms: C_10  and  O_12
REMARK    6  A    between atoms: O_12  and  C_13
REMARK    7  A    between atoms: C_13  and  C_14
REMARK    8  A    between atoms: C_15  and  O_45
REMARK    9  A    between atoms: C_16  and  O_33
REMARK   10  A    between atoms: C_17  and  O_32
REMARK   11  A    between atoms: C_18  and  O_20
REMARK   12  A    between atoms: O_20  and  C_21
REMARK   13  A    between atoms: C_21  and  C_23
REMARK   14  A    between atoms: C_25  and  O_31
REMARK   15  A    between atoms: C_26  and  O_30
REMARK   16  A    between atoms: C_27  and  O_29
REMARK   17  A    between atoms: O_33  and  C_34
REMARK   18  A    between atoms: C_34  and  C_36
REMARK   19  A    between atoms: C_38  and  O_44
REMARK   20  A    between atoms: C_39  and  O_43
REMARK   21  A    between atoms: C_40  and  O_42
REMARK                            x       y       z     vdW  Elec       q    Type
REMARK                         _______ _______ _______ _____ _____    ______ ____
ROOT
ATOM      1  C   UNL     1      10.180  -0.769  23.454  0.00  0.00    +0.000 C 
ATOM      2  C   UNL     1       9.972  -0.423  24.936  0.00  0.00    +0.000 C 
ATOM      3  C   UNL     1       8.469  -0.508  25.273  0.00  0.00    +0.000 C 
ATOM      4  C   UNL     1       7.930  -1.909  24.935  0.00  0.00    +0.000 C 
ATOM      5  C   UNL     1       8.244  -2.244  23.457  0.00  0.00    +0.000 C 
ATOM      6  O   UNL     1       9.643  -2.073  23.178  0.00  0.00    +0.000 OA
ENDROOT
BRANCH   2   7
ATOM      7  O   UNL     1      10.571   0.838  25.230  0.00  0.00    +0.000 OA
ATOM      8  H   UNL     1       9.882   1.469  25.524  0.00  0.00    +0.000 HD
ENDBRANCH   2   7
BRANCH   4   9
ATOM      9  O   UNL     1       8.501  -2.889  25.824  0.00  0.00    +0.000 OA
ATOM     10  H   UNL     1       7.801  -3.518  26.076  0.00  0.00    +0.000 HD
ENDBRANCH   4   9
BRANCH   3  11
ATOM     11  O   UNL     1       8.222  -0.217  26.663  0.00  0.00    +0.000 OA
BRANCH  11  12
ATOM     12  C   UNL     1       6.963   0.199  26.934  0.00  0.00    +0.000 C 
ATOM     13  O   UNL     1       6.206  -0.330  27.738  0.00  0.00    +0.000 OA
BRANCH  12  14
ATOM     14  C   UNL     1       6.610   1.417  26.172  0.00  0.00    +0.000 A 
ATOM     15  C   UNL     1       5.579   1.307  25.222  0.00  0.00    +0.000 A 
ATOM     16  C   UNL     1       5.108   2.452  24.596  0.00  0.00    +0.000 A 
ATOM     17  C   UNL     1       5.666   3.690  24.894  0.00  0.00    +0.000 A 
ATOM     18  C   UNL     1       6.708   3.790  25.808  0.00  0.00    +0.000 A 
ATOM     19  C   UNL     1       7.197   2.660  26.449  0.00  0.00    +0.000 A 
BRANCH  16  20
ATOM     20  O   UNL     1       4.065   2.417  23.711  0.00  0.00    +0.000 OA
ATOM     21  H   UNL     1       4.102   1.573  23.227  0.00  0.00    +0.000 HD
ENDBRANCH  16  20
BRANCH  17  22
ATOM     22  O   UNL     1       5.176   4.829  24.318  0.00  0.00    +0.000 OA
ATOM     23  H   UNL     1       5.966   5.399  24.202  0.00  0.00    +0.000 HD
ENDBRANCH  17  22
BRANCH  18  24
ATOM     24  O   UNL     1       7.232   5.011  26.118  0.00  0.00    +0.000 OA
ATOM     25  H   UNL     1       6.713   5.647  25.585  0.00  0.00    +0.000 HD
ENDBRANCH  18  24
ENDBRANCH  12  14
ENDBRANCH  11  12
ENDBRANCH   3  11
BRANCH   5  26
ATOM     26  O   UNL     1       7.954  -3.620  23.191  0.00  0.00    +0.000 OA
BRANCH  26  27
ATOM     27  C   UNL     1       6.755  -3.877  22.617  0.00  0.00    +0.000 C 
ATOM     28  O   UNL     1       6.349  -3.400  21.576  0.00  0.00    +0.000 OA
BRANCH  27  29
ATOM     29  C   UNL     1       5.997  -4.855  23.451  0.00  0.00    +0.000 A 
ATOM     30  C   UNL     1       4.873  -5.488  22.882  0.00  0.00    +0.000 A 
ATOM     31  C   UNL     1       4.162  -6.418  23.634  0.00  0.00    +0.000 A 
ATOM     32  C   UNL     1       4.564  -6.720  24.933  0.00  0.00    +0.000 A 
ATOM     33  C   UNL     1       5.662  -6.089  25.495  0.00  0.00    +0.000 A 
ATOM     34  C   UNL     1       6.388  -5.166  24.763  0.00  0.00    +0.000 A 
BRANCH  31  35
ATOM     35  O   UNL     1       3.065  -7.068  23.143  0.00  0.00    +0.000 OA
ATOM     36  H   UNL     1       2.336  -6.965  23.778  0.00  0.00    +0.000 HD
ENDBRANCH  31  35
BRANCH  33  37
ATOM     37  O   UNL     1       6.053  -6.384  26.765  0.00  0.00    +0.000 OA
ATOM     38  H   UNL     1       5.585  -7.216  26.983  0.00  0.00    +0.000 HD
ENDBRANCH  33  37
BRANCH  32  39
ATOM     39  O   UNL     1       3.865  -7.631  25.682  0.00  0.00    +0.000 OA
ATOM     40  H   UNL     1       3.749  -7.195  26.550  0.00  0.00    +0.000 HD
ENDBRANCH  32  39
ENDBRANCH  27  29
ENDBRANCH  26  27
ENDBRANCH   5  26
BRANCH   1  41
ATOM     41  C   UNL     1       9.636   0.321  22.499  0.00  0.00    +0.000 C 
BRANCH  41  42
ATOM     42  O   UNL     1      10.389   1.543  22.627  0.00  0.00    +0.000 OA
BRANCH  42  43
ATOM     43  C   UNL     1       9.645   2.635  22.933  0.00  0.00    +0.000 C 
ATOM     44  O   UNL     1       8.425   2.673  22.960  0.00  0.00    +0.000 OA
BRANCH  43  46
ATOM     45  C   UNL     1       9.892   4.868  23.956  0.00  0.00    +0.000 A 
ATOM     46  C   UNL     1      10.506   3.795  23.285  0.00  0.00    +0.000 A 
ATOM     47  C   UNL     1      11.885   3.832  23.013  0.00  0.00    +0.000 A 
ATOM     48  C   UNL     1      12.629   4.926  23.451  0.00  0.00    +0.000 A 
ATOM     49  C   UNL     1      12.018   5.982  24.112  0.00  0.00    +0.000 A 
ATOM     50  C   UNL     1      10.655   5.948  24.362  0.00  0.00    +0.000 A 
BRANCH  48  51
ATOM     51  O   UNL     1      13.985   4.984  23.290  0.00  0.00    +0.000 OA
ATOM     52  H   UNL     1      14.301   4.061  23.270  0.00  0.00    +0.000 HD
ENDBRANCH  48  51
BRANCH  49  53
ATOM     53  O   UNL     1      12.754   7.046  24.557  0.00  0.00    +0.000 OA
ATOM     54  H   UNL     1      13.388   7.227  23.834  0.00  0.00    +0.000 HD
ENDBRANCH  49  53
BRANCH  50  55
ATOM     55  O   UNL     1      10.060   6.975  25.037  0.00  0.00    +0.000 OA
ATOM     56  H   UNL     1      10.699   7.217  25.740  0.00  0.00    +0.000 HD
ENDBRANCH  50  55
ENDBRANCH  43  46
ENDBRANCH  42  43
ENDBRANCH  41  42
ENDBRANCH   1  41
TORSDOF 21
ENDMDL
MODEL 8
REMARK VINA RESULT:      -7.8      1.921      7.580
REMARK  Name = 
REMARK  21 active torsions:
REMARK  status: ('A' for Active; 'I' for Inactive)
REMARK    1  A    between atoms: C_2  and  C_10
REMARK    2  A    between atoms: C_4  and  O_9
REMARK    3  A    between atoms: C_5  and  O_8
REMARK    4  A    between atoms: C_6  and  O_7
REMARK    5  A    between atoms: C_10  and  O_12
REMARK    6  A    between atoms: O_12  and  C_13
REMARK    7  A    between atoms: C_13  and  C_14
REMARK    8  A    between atoms: C_15  and  O_45
REMARK    9  A    between atoms: C_16  and  O_33
REMARK   10  A    between atoms: C_17  and  O_32
REMARK   11  A    between atoms: C_18  and  O_20
REMARK   12  A    between atoms: O_20  and  C_21
REMARK   13  A    between atoms: C_21  and  C_23
REMARK   14  A    between atoms: C_25  and  O_31
REMARK   15  A    between atoms: C_26  and  O_30
REMARK   16  A    between atoms: C_27  and  O_29
REMARK   17  A    between atoms: O_33  and  C_34
REMARK   18  A    between atoms: C_34  and  C_36
REMARK   19  A    between atoms: C_38  and  O_44
REMARK   20  A    between atoms: C_39  and  O_43
REMARK   21  A    between atoms: C_40  and  O_42
REMARK                            x       y       z     vdW  Elec       q    Type
REMARK                         _______ _______ _______ _____ _____    ______ ____
ROOT
ATOM      1  C   UNL     1      10.188  -0.732  23.465  0.00  0.00    +0.000 C 
ATOM      2  C   UNL     1       9.994  -0.384  24.949  0.00  0.00    +0.000 C 
ATOM      3  C   UNL     1       8.495  -0.480  25.301  0.00  0.00    +0.000 C 
ATOM      4  C   UNL     1       7.963  -1.885  24.972  0.00  0.00    +0.000 C 
ATOM      5  C   UNL     1       8.263  -2.221  23.492  0.00  0.00    +0.000 C 
ATOM      6  O   UNL     1       9.658  -2.041  23.197  0.00  0.00    +0.000 OA
ENDROOT
BRANCH   2   7
ATOM      7  O   UNL     1      10.587   0.881  25.234  0.00  0.00    +0.000 OA
ATOM      8  H   UNL     1      11.530   0.870  24.968  0.00  0.00    +0.000 HD
ENDBRANCH   2   7
BRANCH   4   9
ATOM      9  O   UNL     1       8.550  -2.859  25.857  0.00  0.00    +0.000 OA
ATOM     10  H   UNL     1       9.190  -2.402  26.433  0.00  0.00    +0.000 HD
ENDBRANCH   4   9
BRANCH   3  11
ATOM     11  O   UNL     1       8.261  -0.187  26.694  0.00  0.00    +0.000 OA
BRANCH  11  12
ATOM     12  C   UNL     1       7.009   0.244  26.974  0.00  0.00    +0.000 C 
ATOM     13  O   UNL     1       6.260  -0.261  27.799  0.00  0.00    +0.000 OA
BRANCH  12  14
ATOM     14  C   UNL     1       6.655   1.448  26.190  0.00  0.00    +0.000 A 
ATOM     15  C   UNL     1       5.660   1.307  25.205  0.00  0.00    +0.000 A 
ATOM     16  C   UNL     1       5.184   2.437  24.554  0.00  0.00    +0.000 A 
ATOM     17  C   UNL     1       5.702   3.689  24.863  0.00  0.00    +0.000 A 
ATOM     18  C   UNL     1       6.708   3.821  25.812  0.00  0.00    +0.000 A 
ATOM     19  C   UNL     1       7.201   2.707  26.478  0.00  0.00    +0.000 A 
BRANCH  16  20
ATOM     20  O   UNL     1       4.175   2.370  23.634  0.00  0.00    +0.000 OA
ATOM     21  H   UNL     1       4.066   1.441  23.363  0.00  0.00    +0.000 HD
ENDBRANCH  16  20
BRANCH  17  22
ATOM     22  O   UNL     1       5.206   4.813  24.260  0.00  0.00    +0.000 OA
ATOM     23  H   UNL     1       4.730   4.473  23.473  0.00  0.00    +0.000 HD
ENDBRANCH  17  22
BRANCH  18  24
ATOM     24  O   UNL     1       7.192   5.056  26.130  0.00  0.00    +0.000 OA
ATOM     25  H   UNL     1       7.222   5.539  25.279  0.00  0.00    +0.000 HD
ENDBRANCH  18  24
ENDBRANCH  12  14
ENDBRANCH  11  12
ENDBRANCH   3  11
BRANCH   5  26
ATOM     26  O   UNL     1       7.979  -3.600  23.232  0.00  0.00    +0.000 OA
BRANCH  26  27
ATOM     27  C   UNL     1       6.803  -3.861  22.615  0.00  0.00    +0.000 C 
ATOM     28  O   UNL     1       6.427  -3.373  21.567  0.00  0.00    +0.000 OA
BRANCH  27  29
ATOM     29  C   UNL     1       6.029  -4.859  23.409  0.00  0.00    +0.000 A 
ATOM     30  C   UNL     1       6.458  -5.149  24.719  0.00  0.00    +0.000 A 
ATOM     31  C   UNL     1       5.741  -6.062  25.485  0.00  0.00    +0.000 A 
ATOM     32  C   UNL     1       4.607  -6.677  24.959  0.00  0.00    +0.000 A 
ATOM     33  C   UNL     1       4.192  -6.398  23.667  0.00  0.00    +0.000 A 
ATOM     34  C   UNL     1       4.886  -5.489  22.889  0.00  0.00    +0.000 A 
BRANCH  31  35
ATOM     35  O   UNL     1       6.103  -6.387  26.762  0.00  0.00    +0.000 OA
ATOM     36  H   UNL     1       6.446  -5.588  27.197  0.00  0.00    +0.000 HD
ENDBRANCH  31  35
BRANCH  33  37
ATOM     37  O   UNL     1       3.084  -7.000  23.153  0.00  0.00    +0.000 OA
ATOM     38  H   UNL     1       3.047  -7.874  23.594  0.00  0.00    +0.000 HD
ENDBRANCH  33  37
BRANCH  32  39
ATOM     39  O   UNL     1       3.897  -7.581  25.705  0.00  0.00    +0.000 OA
ATOM     40  H   UNL     1       4.558  -8.256  25.964  0.00  0.00    +0.000 HD
ENDBRANCH  32  39
ENDBRANCH  27  29
ENDBRANCH  26  27
ENDBRANCH   5  26
BRANCH   1  41
ATOM     41  C   UNL     1       9.627   0.352  22.513  0.00  0.00    +0.000 C 
BRANCH  41  42
ATOM     42  O   UNL     1      10.350   1.590  22.657  0.00  0.00    +0.000 OA
BRANCH  42  43
ATOM     43  C   UNL     1       9.569   2.679  22.863  0.00  0.00    +0.000 C 
ATOM     44  O   UNL     1       8.361   2.723  22.696  0.00  0.00    +0.000 OA
BRANCH  43  46
ATOM     45  C   UNL     1      11.748   3.812  23.115  0.00  0.00    +0.000 A 
ATOM     46  C   UNL     1      10.365   3.827  23.373  0.00  0.00    +0.000 A 
ATOM     47  C   UNL     1       9.788   4.916  24.049  0.00  0.00    +0.000 A 
ATOM     48  C   UNL     1      10.599   5.986  24.421  0.00  0.00    +0.000 A 
ATOM     49  C   UNL     1      11.964   5.965  24.164  0.00  0.00    +0.000 A 
ATOM     50  C   UNL     1      12.530   4.881  23.513  0.00  0.00    +0.000 A 
BRANCH  48  51
ATOM     51  O   UNL     1      10.086   7.108  25.007  0.00  0.00    +0.000 OA
ATOM     52  H   UNL     1       9.161   7.180  24.705  0.00  0.00    +0.000 HD
ENDBRANCH  48  51
BRANCH  49  53
ATOM     53  O   UNL     1      12.755   7.025  24.514  0.00  0.00    +0.000 OA
ATOM     54  H   UNL     1      13.565   6.917  23.976  0.00  0.00    +0.000 HD
ENDBRANCH  49  53
BRANCH  50  55
ATOM     55  O   UNL     1      13.867   4.875  23.236  0.00  0.00    +0.000 OA
ATOM     56  H   UNL     1      14.241   5.593  23.788  0.00  0.00    +0.000 HD
ENDBRANCH  50  55
ENDBRANCH  43  46
ENDBRANCH  42  43
ENDBRANCH  41  42
ENDBRANCH   1  41
TORSDOF 21
ENDMDL
MODEL 9
REMARK VINA RESULT:      -7.7      1.952      7.257
REMARK  Name = 
REMARK  21 active torsions:
REMARK  status: ('A' for Active; 'I' for Inactive)
REMARK    1  A    between atoms: C_2  and  C_10
REMARK    2  A    between atoms: C_4  and  O_9
REMARK    3  A    between atoms: C_5  and  O_8
REMARK    4  A    between atoms: C_6  and  O_7
REMARK    5  A    between atoms: C_10  and  O_12
REMARK    6  A    between atoms: O_12  and  C_13
REMARK    7  A    between atoms: C_13  and  C_14
REMARK    8  A    between atoms: C_15  and  O_45
REMARK    9  A    between atoms: C_16  and  O_33
REMARK   10  A    between atoms: C_17  and  O_32
REMARK   11  A    between atoms: C_18  and  O_20
REMARK   12  A    between atoms: O_20  and  C_21
REMARK   13  A    between atoms: C_21  and  C_23
REMARK   14  A    between atoms: C_25  and  O_31
REMARK   15  A    between atoms: C_26  and  O_30
REMARK   16  A    between atoms: C_27  and  O_29
REMARK   17  A    between atoms: O_33  and  C_34
REMARK   18  A    between atoms: C_34  and  C_36
REMARK   19  A    between atoms: C_38  and  O_44
REMARK   20  A    between atoms: C_39  and  O_43
REMARK   21  A    between atoms: C_40  and  O_42
REMARK                            x       y       z     vdW  Elec       q    Type
REMARK                         _______ _______ _______ _____ _____    ______ ____
ROOT
ATOM      1  C   UNL     1       9.935  -0.747  24.304  0.00  0.00    +0.000 C 
ATOM      2  C   UNL     1       9.077  -0.081  25.390  0.00  0.00    +0.000 C 
ATOM      3  C   UNL     1       7.585  -0.311  25.072  0.00  0.00    +0.000 C 
ATOM      4  C   UNL     1       7.294  -1.818  24.962  0.00  0.00    +0.000 C 
ATOM      5  C   UNL     1       8.245  -2.456  23.921  0.00  0.00    +0.000 C 
ATOM      6  O   UNL     1       9.616  -2.146  24.219  0.00  0.00    +0.000 OA
ENDROOT
BRANCH   2   7
ATOM      7  O   UNL     1       9.445   1.290  25.528  0.00  0.00    +0.000 OA
ATOM      8  H   UNL     1      10.422   1.368  25.554  0.00  0.00    +0.000 HD
ENDBRANCH   2   7
BRANCH   4   9
ATOM      9  O   UNL     1       7.435  -2.447  26.250  0.00  0.00    +0.000 OA
ATOM     10  H   UNL     1       6.808  -3.191  26.297  0.00  0.00    +0.000 HD
ENDBRANCH   4   9
BRANCH   3  11
ATOM     11  O   UNL     1       6.734   0.274  26.079  0.00  0.00    +0.000 OA
BRANCH  11  12
ATOM     12  C   UNL     1       5.598   0.829  25.599  0.00  0.00    +0.000 C 
ATOM     13  O   UNL     1       4.511   0.268  25.543  0.00  0.00    +0.000 OA
BRANCH  12  14
ATOM     14  C   UNL     1       5.805   2.235  25.185  0.00  0.00    +0.000 A 
ATOM     15  C   UNL     1       6.450   3.088  26.098  0.00  0.00    +0.000 A 
ATOM     16  C   UNL     1       6.806   4.368  25.697  0.00  0.00    +0.000 A 
ATOM     17  C   UNL     1       6.509   4.803  24.411  0.00  0.00    +0.000 A 
ATOM     18  C   UNL     1       5.841   3.969  23.522  0.00  0.00    +0.000 A 
ATOM     19  C   UNL     1       5.475   2.684  23.898  0.00  0.00    +0.000 A 
BRANCH  16  20
ATOM     20  O   UNL     1       7.491   5.220  26.519  0.00  0.00    +0.000 OA
ATOM     21  H   UNL     1       7.082   6.101  26.456  0.00  0.00    +0.000 HD
ENDBRANCH  16  20
BRANCH  17  22
ATOM     22  O   UNL     1       6.897   6.045  23.991  0.00  0.00    +0.000 OA
ATOM     23  H   UNL     1       6.236   6.286  23.309  0.00  0.00    +0.000 HD
ENDBRANCH  17  22
BRANCH  18  24
ATOM     24  O   UNL     1       5.578   4.392  22.253  0.00  0.00    +0.000 OA
ATOM     25  H   UNL     1       5.830   5.338  22.248  0.00  0.00    +0.000 HD
ENDBRANCH  18  24
ENDBRANCH  12  14
ENDBRANCH  11  12
ENDBRANCH   3  11
BRANCH   5  26
ATOM     26  O   UNL     1       8.143  -3.883  23.970  0.00  0.00    +0.000 OA
BRANCH  26  27
ATOM     27  C   UNL     1       7.217  -4.443  23.157  0.00  0.00    +0.000 C 
ATOM     28  O   UNL     1       7.154  -4.306  21.950  0.00  0.00    +0.000 OA
BRANCH  27  29
ATOM     29  C   UNL     1       6.278  -5.277  23.962  0.00  0.00    +0.000 A 
ATOM     30  C   UNL     1       5.192  -5.886  23.303  0.00  0.00    +0.000 A 
ATOM     31  C   UNL     1       4.314  -6.683  24.031  0.00  0.00    +0.000 A 
ATOM     32  C   UNL     1       4.514  -6.879  25.395  0.00  0.00    +0.000 A 
ATOM     33  C   UNL     1       5.577  -6.271  26.044  0.00  0.00    +0.000 A 
ATOM     34  C   UNL     1       6.466  -5.479  25.339  0.00  0.00    +0.000 A 
BRANCH  31  35
ATOM     35  O   UNL     1       3.242  -7.303  23.453  0.00  0.00    +0.000 OA
ATOM     36  H   UNL     1       2.437  -7.035  23.929  0.00  0.00    +0.000 HD
ENDBRANCH  31  35
BRANCH  33  37
ATOM     37  O   UNL     1       5.772  -6.462  27.378  0.00  0.00    +0.000 OA
ATOM     38  H   UNL     1       5.248  -5.756  27.810  0.00  0.00    +0.000 HD
ENDBRANCH  33  37
BRANCH  32  39
ATOM     39  O   UNL     1       3.652  -7.659  26.119  0.00  0.00    +0.000 OA
ATOM     40  H   UNL     1       4.188  -7.982  26.872  0.00  0.00    +0.000 HD
ENDBRANCH  32  39
ENDBRANCH  27  29
ENDBRANCH  26  27
ENDBRANCH   5  26
BRANCH   1  41
ATOM     41  C   UNL     1       9.845  -0.025  22.937  0.00  0.00    +0.000 C 
BRANCH  41  42
ATOM     42  O   UNL     1      10.620   1.190  22.943  0.00  0.00    +0.000 OA
BRANCH  42  43
ATOM     43  C   UNL     1       9.908   2.314  22.679  0.00  0.00    +0.000 C 
ATOM     44  O   UNL     1       8.792   2.344  22.187  0.00  0.00    +0.000 OA
BRANCH  43  46
ATOM     45  C   UNL     1       9.909   4.504  23.819  0.00  0.00    +0.000 A 
ATOM     46  C   UNL     1      10.642   3.533  23.113  0.00  0.00    +0.000 A 
ATOM     47  C   UNL     1      12.017   3.719  22.883  0.00  0.00    +0.000 A 
ATOM     48  C   UNL     1      12.638   4.856  23.395  0.00  0.00    +0.000 A 
ATOM     49  C   UNL     1      11.910   5.811  24.090  0.00  0.00    +0.000 A 
ATOM     50  C   UNL     1      10.552   5.631  24.299  0.00  0.00    +0.000 A 
BRANCH  48  51
ATOM     51  O   UNL     1      13.985   5.054  23.276  0.00  0.00    +0.000 OA
ATOM     52  H   UNL     1      14.215   4.846  22.351  0.00  0.00    +0.000 HD
ENDBRANCH  48  51
BRANCH  49  53
ATOM     53  O   UNL     1      12.526   6.918  24.608  0.00  0.00    +0.000 OA
ATOM     54  H   UNL     1      11.794   7.526  24.834  0.00  0.00    +0.000 HD
ENDBRANCH  49  53
BRANCH  50  55
ATOM     55  O   UNL     1       9.843   6.558  25.008  0.00  0.00    +0.000 OA
ATOM     56  H   UNL     1       9.422   6.052  25.733  0.00  0.00    +0.000 HD
ENDBRANCH  50  55
ENDBRANCH  43  46
ENDBRANCH  42  43
ENDBRANCH  41  42
ENDBRANCH   1  41
TORSDOF 21
ENDMDL
