MODEL 1
REMARK VINA RESULT:      -9.3      0.000      0.000
REMARK  Name = 
REMARK  10 active torsions:
REMARK  status: ('A' for Active; 'I' for Inactive)
REMARK    1  A    between atoms: C_1  and  C_2
REMARK    2  A    between atoms: C_2  and  C_33
REMARK    3  A    between atoms: C_5  and  C_30
REMARK    4  A    between atoms: C_8  and  C_29
REMARK    5  A    between atoms: C_13  and  C_26
REMARK    6  A    between atoms: C_17  and  C_25
REMARK    7  A    between atoms: C_20  and  O_24
REMARK    8  A    between atoms: C_21  and  C_22
REMARK    9  A    between atoms: C_21  and  C_23
REMARK   10  A    between atoms: C_30  and  O_32
REMARK                            x       y       z     vdW  Elec       q    Type
REMARK                         _______ _______ _______ _____ _____    ______ ____
ROOT
ATOM      1  C   UNL     1       6.188  -5.388  21.485  0.00  0.00    +0.000 C 
ATOM      2  C   UNL     1       6.204  -4.518  22.757  0.00  0.00    +0.000 C 
ATOM      3  C   UNL     1       6.982  -5.279  23.853  0.00  0.00    +0.000 C 
ATOM      4  C   UNL     1       7.205  -4.460  25.134  0.00  0.00    +0.000 C 
ATOM      5  C   UNL     1       8.044  -3.197  24.812  0.00  0.00    +0.000 C 
ATOM      6  C   UNL     1       8.299  -2.324  26.046  0.00  0.00    +0.000 C 
ATOM      7  C   UNL     1       9.087  -1.064  25.606  0.00  0.00    +0.000 C 
ATOM      8  C   UNL     1       8.196  -0.123  24.772  0.00  0.00    +0.000 C 
ATOM      9  C   UNL     1       7.345  -0.855  23.668  0.00  0.00    +0.000 C 
ATOM     10  C   UNL     1       6.851  -0.150  22.595  0.00  0.00    +0.000 C 
ATOM     11  C   UNL     1       7.126   1.327  22.269  0.00  0.00    +0.000 C 
ATOM     12  C   UNL     1       7.820   1.943  23.485  0.00  0.00    +0.000 C 
ATOM     13  C   UNL     1       8.997   0.982  23.909  0.00  0.00    +0.000 C 
ATOM     14  C   UNL     1      10.151   1.771  24.533  0.00  0.00    +0.000 C 
ATOM     15  C   UNL     1      10.453   3.105  23.804  0.00  0.00    +0.000 C 
ATOM     16  C   UNL     1       9.267   4.030  23.332  0.00  0.00    +0.000 C 
ATOM     17  C   UNL     1       7.917   3.475  23.825  0.00  0.00    +0.000 C 
ATOM     18  C   UNL     1       7.842   3.713  25.382  0.00  0.00    +0.000 C 
ATOM     19  C   UNL     1       8.144   5.135  25.854  0.00  0.00    +0.000 C 
ATOM     20  C   UNL     1       9.443   5.670  25.281  0.00  0.00    +0.000 C 
ATOM     21  C   UNL     1       9.537   5.542  23.735  0.00  0.00    +0.000 C 
ATOM     22  C   UNL     1      10.934   5.983  23.232  0.00  0.00    +0.000 C 
ATOM     23  C   UNL     1       8.556   6.537  23.061  0.00  0.00    +0.000 C 
ATOM     24  C   UNL     1       6.638   4.132  23.244  0.00  0.00    +0.000 C 
ATOM     25  C   UNL     1       9.749   0.253  22.693  0.00  0.00    +0.000 C 
ATOM     26  C   UNL     1       7.139  -2.366  23.809  0.00  0.00    +0.000 C 
ATOM     27  C   UNL     1       6.910  -3.169  22.488  0.00  0.00    +0.000 C 
ATOM     28  C   UNL     1       7.260   0.490  25.904  0.00  0.00    +0.000 C 
ATOM     29  C   UNL     1       4.732  -4.266  23.160  0.00  0.00    +0.000 C 
ENDROOT
BRANCH  20  30
ATOM     30  O   UNL     1       9.658   7.014  25.705  0.00  0.00    +0.000 OA
ATOM     31  H   UNL     1       8.790   7.430  25.814  0.00  0.00    +0.000 HD
ENDBRANCH  20  30
BRANCH   5  32
ATOM     32  C   UNL     1       9.457  -3.762  24.485  0.00  0.00    +0.000 C 
ATOM     33  O   UNL     1       9.919  -4.761  25.016  0.00  0.00    +0.000 OA
BRANCH  32  34
ATOM     34  O   UNL     1      10.193  -3.047  23.620  0.00  0.00    +0.000 OA
ATOM     35  H   UNL     1       9.851  -3.038  22.708  0.00  0.00    +0.000 HD
ENDBRANCH  32  34
ENDBRANCH   5  32
TORSDOF 3
ENDMDL
MODEL 2
REMARK VINA RESULT:      -8.8      2.861      8.412
REMARK  Name = 
REMARK  10 active torsions:
REMARK  status: ('A' for Active; 'I' for Inactive)
REMARK    1  A    between atoms: C_1  and  C_2
REMARK    2  A    between atoms: C_2  and  C_33
REMARK    3  A    between atoms: C_5  and  C_30
REMARK    4  A    between atoms: C_8  and  C_29
REMARK    5  A    between atoms: C_13  and  C_26
REMARK    6  A    between atoms: C_17  and  C_25
REMARK    7  A    between atoms: C_20  and  O_24
REMARK    8  A    between atoms: C_21  and  C_22
REMARK    9  A    between atoms: C_21  and  C_23
REMARK   10  A    between atoms: C_30  and  O_32
REMARK                            x       y       z     vdW  Elec       q    Type
REMARK                         _______ _______ _______ _____ _____    ______ ____
ROOT
ATOM      1  C   UNL     1       9.055   3.491  23.561  0.00  0.00    +0.000 C 
ATOM      2  C   UNL     1       8.428   2.273  22.854  0.00  0.00    +0.000 C 
ATOM      3  C   UNL     1       9.504   1.633  21.950  0.00  0.00    +0.000 C 
ATOM      4  C   UNL     1       9.058   0.316  21.297  0.00  0.00    +0.000 C 
ATOM      5  C   UNL     1       8.738  -0.734  22.393  0.00  0.00    +0.000 C 
ATOM      6  C   UNL     1       8.275  -2.075  21.812  0.00  0.00    +0.000 C 
ATOM      7  C   UNL     1       7.924  -3.026  22.984  0.00  0.00    +0.000 C 
ATOM      8  C   UNL     1       6.638  -2.566  23.696  0.00  0.00    +0.000 C 
ATOM      9  C   UNL     1       6.583  -1.021  23.990  0.00  0.00    +0.000 C 
ATOM     10  C   UNL     1       5.744  -0.531  24.965  0.00  0.00    +0.000 C 
ATOM     11  C   UNL     1       4.878  -1.362  25.925  0.00  0.00    +0.000 C 
ATOM     12  C   UNL     1       4.906  -2.810  25.431  0.00  0.00    +0.000 C 
ATOM     13  C   UNL     1       6.411  -3.201  25.164  0.00  0.00    +0.000 C 
ATOM     14  C   UNL     1       6.641  -4.694  25.411  0.00  0.00    +0.000 C 
ATOM     15  C   UNL     1       5.901  -5.235  26.661  0.00  0.00    +0.000 C 
ATOM     16  C   UNL     1       4.416  -4.791  26.950  0.00  0.00    +0.000 C 
ATOM     17  C   UNL     1       3.870  -3.936  25.791  0.00  0.00    +0.000 C 
ATOM     18  C   UNL     1       3.631  -4.896  24.562  0.00  0.00    +0.000 C 
ATOM     19  C   UNL     1       2.815  -6.156  24.849  0.00  0.00    +0.000 C 
ATOM     20  C   UNL     1       3.341  -6.923  26.047  0.00  0.00    +0.000 C 
ATOM     21  C   UNL     1       3.514  -6.045  27.318  0.00  0.00    +0.000 C 
ATOM     22  C   UNL     1       4.176  -6.857  28.460  0.00  0.00    +0.000 C 
ATOM     23  C   UNL     1       2.124  -5.652  27.884  0.00  0.00    +0.000 C 
ATOM     24  C   UNL     1       2.515  -3.222  26.029  0.00  0.00    +0.000 C 
ATOM     25  C   UNL     1       7.471  -2.557  26.182  0.00  0.00    +0.000 C 
ATOM     26  C   UNL     1       7.523  -0.109  23.197  0.00  0.00    +0.000 C 
ATOM     27  C   UNL     1       7.953   1.225  23.887  0.00  0.00    +0.000 C 
ATOM     28  C   UNL     1       5.533  -2.987  22.630  0.00  0.00    +0.000 C 
ATOM     29  C   UNL     1       7.218   2.789  22.039  0.00  0.00    +0.000 C 
ENDROOT
BRANCH  20  30
ATOM     30  O   UNL     1       2.520  -8.059  26.310  0.00  0.00    +0.000 OA
ATOM     31  H   UNL     1       3.031  -8.669  26.862  0.00  0.00    +0.000 HD
ENDBRANCH  20  30
BRANCH   5  32
ATOM     32  C   UNL     1      10.131  -1.076  22.998  0.00  0.00    +0.000 C 
ATOM     33  O   UNL     1      10.444  -0.816  24.150  0.00  0.00    +0.000 OA
BRANCH  32  34
ATOM     34  O   UNL     1      11.022  -1.622  22.155  0.00  0.00    +0.000 OA
ATOM     35  H   UNL     1      11.945  -1.587  22.464  0.00  0.00    +0.000 HD
ENDBRANCH  32  34
ENDBRANCH   5  32
TORSDOF 3
ENDMDL
MODEL 3
REMARK VINA RESULT:      -8.3      1.045      1.310
REMARK  Name = 
REMARK  10 active torsions:
REMARK  status: ('A' for Active; 'I' for Inactive)
REMARK    1  A    between atoms: C_1  and  C_2
REMARK    2  A    between atoms: C_2  and  C_33
REMARK    3  A    between atoms: C_5  and  C_30
REMARK    4  A    between atoms: C_8  and  C_29
REMARK    5  A    between atoms: C_13  and  C_26
REMARK    6  A    between atoms: C_17  and  C_25
REMARK    7  A    between atoms: C_20  and  O_24
REMARK    8  A    between atoms: C_21  and  C_22
REMARK    9  A    between atoms: C_21  and  C_23
REMARK   10  A    between atoms: C_30  and  O_32
REMARK                            x       y       z     vdW  Elec       q    Type
REMARK                         _______ _______ _______ _____ _____    ______ ____
ROOT
ATOM      1  C   UNL     1       6.285  -6.535  22.115  0.00  0.00    +0.000 C 
ATOM      2  C   UNL     1       6.040  -5.548  23.273  0.00  0.00    +0.000 C 
ATOM      3  C   UNL     1       6.581  -6.185  24.572  0.00  0.00    +0.000 C 
ATOM      4  C   UNL     1       6.537  -5.244  25.786  0.00  0.00    +0.000 C 
ATOM      5  C   UNL     1       7.421  -3.998  25.519  0.00  0.00    +0.000 C 
ATOM      6  C   UNL     1       7.417  -3.007  26.689  0.00  0.00    +0.000 C 
ATOM      7  C   UNL     1       8.274  -1.776  26.296  0.00  0.00    +0.000 C 
ATOM      8  C   UNL     1       7.567  -0.939  25.213  0.00  0.00    +0.000 C 
ATOM      9  C   UNL     1       6.961  -1.791  24.036  0.00  0.00    +0.000 C 
ATOM     10  C   UNL     1       6.692  -1.201  22.822  0.00  0.00    +0.000 C 
ATOM     11  C   UNL     1       7.022   0.244  22.417  0.00  0.00    +0.000 C 
ATOM     12  C   UNL     1       7.454   0.988  23.683  0.00  0.00    +0.000 C 
ATOM     13  C   UNL     1       8.523   0.097  24.426  0.00  0.00    +0.000 C 
ATOM     14  C   UNL     1       9.524   0.968  25.190  0.00  0.00    +0.000 C 
ATOM     15  C   UNL     1       9.963   2.234  24.411  0.00  0.00    +0.000 C 
ATOM     16  C   UNL     1       8.895   3.083  23.623  0.00  0.00    +0.000 C 
ATOM     17  C   UNL     1       7.474   2.546  23.885  0.00  0.00    +0.000 C 
ATOM     18  C   UNL     1       7.085   2.929  25.364  0.00  0.00    +0.000 C 
ATOM     19  C   UNL     1       7.281   4.395  25.747  0.00  0.00    +0.000 C 
ATOM     20  C   UNL     1       8.667   4.903  25.399  0.00  0.00    +0.000 C 
ATOM     21  C   UNL     1       9.072   4.632  23.923  0.00  0.00    +0.000 C 
ATOM     22  C   UNL     1      10.542   5.055  23.671  0.00  0.00    +0.000 C 
ATOM     23  C   UNL     1       8.246   5.537  22.972  0.00  0.00    +0.000 C 
ATOM     24  C   UNL     1       6.338   3.116  22.997  0.00  0.00    +0.000 C 
ATOM     25  C   UNL     1       9.508  -0.726  23.463  0.00  0.00    +0.000 C 
ATOM     26  C   UNL     1       6.735  -3.286  24.279  0.00  0.00    +0.000 C 
ATOM     27  C   UNL     1       6.781  -4.215  23.023  0.00  0.00    +0.000 C 
ATOM     28  C   UNL     1       6.419  -0.243  26.068  0.00  0.00    +0.000 C 
ATOM     29  C   UNL     1       4.515  -5.294  23.345  0.00  0.00    +0.000 C 
ENDROOT
BRANCH  20  30
ATOM     30  O   UNL     1       8.787   6.286  25.724  0.00  0.00    +0.000 OA
ATOM     31  H   UNL     1       9.616   6.607  25.340  0.00  0.00    +0.000 HD
ENDBRANCH  20  30
BRANCH   5  32
ATOM     32  C   UNL     1       8.872  -4.559  25.540  0.00  0.00    +0.000 C 
ATOM     33  O   UNL     1       9.657  -4.425  24.612  0.00  0.00    +0.000 OA
BRANCH  32  34
ATOM     34  O   UNL     1       9.212  -5.275  26.623  0.00  0.00    +0.000 OA
ATOM     35  H   UNL     1       9.477  -4.743  27.393  0.00  0.00    +0.000 HD
ENDBRANCH  32  34
ENDBRANCH   5  32
TORSDOF 3
ENDMDL
MODEL 4
REMARK VINA RESULT:      -7.7      3.086      5.220
REMARK  Name = 
REMARK  10 active torsions:
REMARK  status: ('A' for Active; 'I' for Inactive)
REMARK    1  A    between atoms: C_1  and  C_2
REMARK    2  A    between atoms: C_2  and  C_33
REMARK    3  A    between atoms: C_5  and  C_30
REMARK    4  A    between atoms: C_8  and  C_29
REMARK    5  A    between atoms: C_13  and  C_26
REMARK    6  A    between atoms: C_17  and  C_25
REMARK    7  A    between atoms: C_20  and  O_24
REMARK    8  A    between atoms: C_21  and  C_22
REMARK    9  A    between atoms: C_21  and  C_23
REMARK   10  A    between atoms: C_30  and  O_32
REMARK                            x       y       z     vdW  Elec       q    Type
REMARK                         _______ _______ _______ _____ _____    ______ ____
ROOT
ATOM      1  C   UNL     1       3.320  -6.430  28.895  0.00  0.00    +0.000 C 
ATOM      2  C   UNL     1       4.205  -6.380  27.635  0.00  0.00    +0.000 C 
ATOM      3  C   UNL     1       3.404  -6.979  26.457  0.00  0.00    +0.000 C 
ATOM      4  C   UNL     1       4.114  -6.855  25.100  0.00  0.00    +0.000 C 
ATOM      5  C   UNL     1       4.333  -5.359  24.755  0.00  0.00    +0.000 C 
ATOM      6  C   UNL     1       5.048  -5.159  23.414  0.00  0.00    +0.000 C 
ATOM      7  C   UNL     1       5.272  -3.641  23.195  0.00  0.00    +0.000 C 
ATOM      8  C   UNL     1       6.336  -3.098  24.167  0.00  0.00    +0.000 C 
ATOM      9  C   UNL     1       6.157  -3.586  25.653  0.00  0.00    +0.000 C 
ATOM     10  C   UNL     1       6.732  -2.881  26.686  0.00  0.00    +0.000 C 
ATOM     11  C   UNL     1       7.484  -1.546  26.572  0.00  0.00    +0.000 C 
ATOM     12  C   UNL     1       7.716  -1.276  25.085  0.00  0.00    +0.000 C 
ATOM     13  C   UNL     1       6.345  -1.492  24.334  0.00  0.00    +0.000 C 
ATOM     14  C   UNL     1       6.242  -0.580  23.108  0.00  0.00    +0.000 C 
ATOM     15  C   UNL     1       6.783   0.851  23.355  0.00  0.00    +0.000 C 
ATOM     16  C   UNL     1       8.124   1.058  24.158  0.00  0.00    +0.000 C 
ATOM     17  C   UNL     1       8.784  -0.299  24.471  0.00  0.00    +0.000 C 
ATOM     18  C   UNL     1       9.363  -0.871  23.121  0.00  0.00    +0.000 C 
ATOM     19  C   UNL     1      10.245   0.083  22.317  0.00  0.00    +0.000 C 
ATOM     20  C   UNL     1       9.588   1.433  22.100  0.00  0.00    +0.000 C 
ATOM     21  C   UNL     1       9.074   2.089  23.412  0.00  0.00    +0.000 C 
ATOM     22  C   UNL     1       8.301   3.396  23.105  0.00  0.00    +0.000 C 
ATOM     23  C   UNL     1      10.275   2.549  24.280  0.00  0.00    +0.000 C 
ATOM     24  C   UNL     1       9.978  -0.282  25.460  0.00  0.00    +0.000 C 
ATOM     25  C   UNL     1       5.043  -1.043  25.157  0.00  0.00    +0.000 C 
ATOM     26  C   UNL     1       5.291  -4.825  25.899  0.00  0.00    +0.000 C 
ATOM     27  C   UNL     1       4.587  -4.922  27.291  0.00  0.00    +0.000 C 
ATOM     28  C   UNL     1       7.666  -3.692  23.524  0.00  0.00    +0.000 C 
ATOM     29  C   UNL     1       5.484  -7.197  27.940  0.00  0.00    +0.000 C 
ENDROOT
BRANCH  20  30
ATOM     30  O   UNL     1      10.466   2.306  21.392  0.00  0.00    +0.000 OA
ATOM     31  H   UNL     1      11.152   1.761  20.980  0.00  0.00    +0.000 HD
ENDBRANCH  20  30
BRANCH   5  32
ATOM     32  C   UNL     1       2.898  -4.830  24.469  0.00  0.00    +0.000 C 
ATOM     33  O   UNL     1       2.379  -3.920  25.100  0.00  0.00    +0.000 OA
BRANCH  32  34
ATOM     34  O   UNL     1       2.208  -5.479  23.518  0.00  0.00    +0.000 OA
ATOM     35  H   UNL     1       2.754  -6.021  22.921  0.00  0.00    +0.000 HD
ENDBRANCH  32  34
ENDBRANCH   5  32
TORSDOF 3
ENDMDL
MODEL 5
REMARK VINA RESULT:      -7.7      1.655      8.158
REMARK  Name = 
REMARK  10 active torsions:
REMARK  status: ('A' for Active; 'I' for Inactive)
REMARK    1  A    between atoms: C_1  and  C_2
REMARK    2  A    between atoms: C_2  and  C_33
REMARK    3  A    between atoms: C_5  and  C_30
REMARK    4  A    between atoms: C_8  and  C_29
REMARK    5  A    between atoms: C_13  and  C_26
REMARK    6  A    between atoms: C_17  and  C_25
REMARK    7  A    between atoms: C_20  and  O_24
REMARK    8  A    between atoms: C_21  and  C_22
REMARK    9  A    between atoms: C_21  and  C_23
REMARK   10  A    between atoms: C_30  and  O_32
REMARK                            x       y       z     vdW  Elec       q    Type
REMARK                         _______ _______ _______ _____ _____    ______ ____
ROOT
ATOM      1  C   UNL     1       8.527   6.778  26.900  0.00  0.00    +0.000 C 
ATOM      2  C   UNL     1       8.010   5.971  25.693  0.00  0.00    +0.000 C 
ATOM      3  C   UNL     1       8.730   6.484  24.426  0.00  0.00    +0.000 C 
ATOM      4  C   UNL     1       8.419   5.663  23.164  0.00  0.00    +0.000 C 
ATOM      5  C   UNL     1       8.888   4.198  23.361  0.00  0.00    +0.000 C 
ATOM      6  C   UNL     1       8.600   3.315  22.141  0.00  0.00    +0.000 C 
ATOM      7  C   UNL     1       9.047   1.866  22.463  0.00  0.00    +0.000 C 
ATOM      8  C   UNL     1       8.112   1.223  23.505  0.00  0.00    +0.000 C 
ATOM      9  C   UNL     1       7.776   2.155  24.728  0.00  0.00    +0.000 C 
ATOM     10  C   UNL     1       7.331   1.610  25.912  0.00  0.00    +0.000 C 
ATOM     11  C   UNL     1       7.211   0.113  26.239  0.00  0.00    +0.000 C 
ATOM     12  C   UNL     1       7.413  -0.658  24.933  0.00  0.00    +0.000 C 
ATOM     13  C   UNL     1       8.707  -0.091  24.231  0.00  0.00    +0.000 C 
ATOM     14  C   UNL     1       9.411  -1.180  23.416  0.00  0.00    +0.000 C 
ATOM     15  C   UNL     1       9.444  -2.557  24.125  0.00  0.00    +0.000 C 
ATOM     16  C   UNL     1       8.163  -3.089  24.874  0.00  0.00    +0.000 C 
ATOM     17  C   UNL     1       6.970  -2.140  24.649  0.00  0.00    +0.000 C 
ATOM     18  C   UNL     1       6.499  -2.311  23.154  0.00  0.00    +0.000 C 
ATOM     19  C   UNL     1       6.252  -3.747  22.694  0.00  0.00    +0.000 C 
ATOM     20  C   UNL     1       7.420  -4.663  23.007  0.00  0.00    +0.000 C 
ATOM     21  C   UNL     1       7.873  -4.603  24.492  0.00  0.00    +0.000 C 
ATOM     22  C   UNL     1       9.147  -5.457  24.713  0.00  0.00    +0.000 C 
ATOM     23  C   UNL     1       6.805  -5.267  25.400  0.00  0.00    +0.000 C 
ATOM     24  C   UNL     1       5.707  -2.390  25.513  0.00  0.00    +0.000 C 
ATOM     25  C   UNL     1       9.883   0.350  25.230  0.00  0.00    +0.000 C 
ATOM     26  C   UNL     1       8.009   3.660  24.566  0.00  0.00    +0.000 C 
ATOM     27  C   UNL     1       8.317   4.466  25.869  0.00  0.00    +0.000 C 
ATOM     28  C   UNL     1       6.817   0.947  22.622  0.00  0.00    +0.000 C 
ATOM     29  C   UNL     1       6.480   6.187  25.617  0.00  0.00    +0.000 C 
ENDROOT
BRANCH  20  30
ATOM     30  O   UNL     1       7.125  -6.000  22.609  0.00  0.00    +0.000 OA
ATOM     31  H   UNL     1       7.941  -6.390  22.263  0.00  0.00    +0.000 HD
ENDBRANCH  20  30
BRANCH   5  32
ATOM     32  C   UNL     1      10.440   4.301  23.361  0.00  0.00    +0.000 C 
ATOM     33  O   UNL     1      11.173   3.397  23.735  0.00  0.00    +0.000 OA
BRANCH  32  34
ATOM     34  O   UNL     1      10.953   5.483  22.985  0.00  0.00    +0.000 OA
ATOM     35  H   UNL     1      10.521   5.884  22.210  0.00  0.00    +0.000 HD
ENDBRANCH  32  34
ENDBRANCH   5  32
TORSDOF 3
ENDMDL
MODEL 6
REMARK VINA RESULT:      -7.5      1.755      8.071
REMARK  Name = 
REMARK  10 active torsions:
REMARK  status: ('A' for Active; 'I' for Inactive)
REMARK    1  A    between atoms: C_1  and  C_2
REMARK    2  A    between atoms: C_2  and  C_33
REMARK    3  A    between atoms: C_5  and  C_30
REMARK    4  A    between atoms: C_8  and  C_29
REMARK    5  A    between atoms: C_13  and  C_26
REMARK    6  A    between atoms: C_17  and  C_25
REMARK    7  A    between atoms: C_20  and  O_24
REMARK    8  A    between atoms: C_21  and  C_22
REMARK    9  A    between atoms: C_21  and  C_23
REMARK   10  A    between atoms: C_30  and  O_32
REMARK                            x       y       z     vdW  Elec       q    Type
REMARK                         _______ _______ _______ _____ _____    ______ ____
ROOT
ATOM      1  C   UNL     1       4.517   7.062  24.868  0.00  0.00    +0.000 C 
ATOM      2  C   UNL     1       5.066   6.053  23.840  0.00  0.00    +0.000 C 
ATOM      3  C   UNL     1       6.300   6.683  23.157  0.00  0.00    +0.000 C 
ATOM      4  C   UNL     1       7.039   5.723  22.212  0.00  0.00    +0.000 C 
ATOM      5  C   UNL     1       7.566   4.502  23.008  0.00  0.00    +0.000 C 
ATOM      6  C   UNL     1       8.309   3.494  22.124  0.00  0.00    +0.000 C 
ATOM      7  C   UNL     1       8.736   2.289  23.000  0.00  0.00    +0.000 C 
ATOM      8  C   UNL     1       7.512   1.452  23.416  0.00  0.00    +0.000 C 
ATOM      9  C   UNL     1       6.292   2.307  23.925  0.00  0.00    +0.000 C 
ATOM     10  C   UNL     1       5.323   1.729  24.713  0.00  0.00    +0.000 C 
ATOM     11  C   UNL     1       5.336   0.297  25.273  0.00  0.00    +0.000 C 
ATOM     12  C   UNL     1       6.475  -0.454  24.582  0.00  0.00    +0.000 C 
ATOM     13  C   UNL     1       7.766   0.449  24.656  0.00  0.00    +0.000 C 
ATOM     14  C   UNL     1       9.032  -0.410  24.717  0.00  0.00    +0.000 C 
ATOM     15  C   UNL     1       8.892  -1.654  25.630  0.00  0.00    +0.000 C 
ATOM     16  C   UNL     1       7.573  -2.516  25.590  0.00  0.00    +0.000 C 
ATOM     17  C   UNL     1       6.631  -2.015  24.478  0.00  0.00    +0.000 C 
ATOM     18  C   UNL     1       7.266  -2.428  23.095  0.00  0.00    +0.000 C 
ATOM     19  C   UNL     1       7.671  -3.895  22.958  0.00  0.00    +0.000 C 
ATOM     20  C   UNL     1       8.531  -4.366  24.116  0.00  0.00    +0.000 C 
ATOM     21  C   UNL     1       7.913  -4.065  25.509  0.00  0.00    +0.000 C 
ATOM     22  C   UNL     1       8.898  -4.451  26.641  0.00  0.00    +0.000 C 
ATOM     23  C   UNL     1       6.678  -4.974  25.749  0.00  0.00    +0.000 C 
ATOM     24  C   UNL     1       5.194  -2.597  24.465  0.00  0.00    +0.000 C 
ATOM     25  C   UNL     1       7.917   1.308  26.003  0.00  0.00    +0.000 C 
ATOM     26  C   UNL     1       6.258   3.793  23.557  0.00  0.00    +0.000 C 
ATOM     27  C   UNL     1       5.493   4.741  24.536  0.00  0.00    +0.000 C 
ATOM     28  C   UNL     1       7.166   0.717  22.047  0.00  0.00    +0.000 C 
ATOM     29  C   UNL     1       3.930   5.763  22.831  0.00  0.00    +0.000 C 
ENDROOT
BRANCH  20  30
ATOM     30  O   UNL     1       8.841  -5.751  23.974  0.00  0.00    +0.000 OA
ATOM     31  H   UNL     1       9.791  -5.857  24.130  0.00  0.00    +0.000 HD
ENDBRANCH  20  30
BRANCH   5  32
ATOM     32  C   UNL     1       8.701   5.095  23.892  0.00  0.00    +0.000 C 
ATOM     33  O   UNL     1       8.712   5.017  25.112  0.00  0.00    +0.000 OA
BRANCH  32  34
ATOM     34  O   UNL     1       9.659   5.775  23.244  0.00  0.00    +0.000 OA
ATOM     35  H   UNL     1       9.900   6.625  23.653  0.00  0.00    +0.000 HD
ENDBRANCH  32  34
ENDBRANCH   5  32
TORSDOF 3
ENDMDL
MODEL 7
REMARK VINA RESULT:      -7.5      2.066      8.315
REMARK  Name = 
REMARK  10 active torsions:
REMARK  status: ('A' for Active; 'I' for Inactive)
REMARK    1  A    between atoms: C_1  and  C_2
REMARK    2  A    between atoms: C_2  and  C_33
REMARK    3  A    between atoms: C_5  and  C_30
REMARK    4  A    between atoms: C_8  and  C_29
REMARK    5  A    between atoms: C_13  and  C_26
REMARK    6  A    between atoms: C_17  and  C_25
REMARK    7  A    between atoms: C_20  and  O_24
REMARK    8  A    between atoms: C_21  and  C_22
REMARK    9  A    between atoms: C_21  and  C_23
REMARK   10  A    between atoms: C_30  and  O_32
REMARK                            x       y       z     vdW  Elec       q    Type
REMARK                         _______ _______ _______ _____ _____    ______ ____
ROOT
ATOM      1  C   UNL     1      10.038   6.768  24.329  0.00  0.00    +0.000 C 
ATOM      2  C   UNL     1       8.862   5.938  24.878  0.00  0.00    +0.000 C 
ATOM      3  C   UNL     1       7.550   6.526  24.313  0.00  0.00    +0.000 C 
ATOM      4  C   UNL     1       6.302   5.699  24.661  0.00  0.00    +0.000 C 
ATOM      5  C   UNL     1       6.429   4.275  24.060  0.00  0.00    +0.000 C 
ATOM      6  C   UNL     1       5.219   3.389  24.377  0.00  0.00    +0.000 C 
ATOM      7  C   UNL     1       5.473   1.978  23.788  0.00  0.00    +0.000 C 
ATOM      8  C   UNL     1       6.576   1.245  24.576  0.00  0.00    +0.000 C 
ATOM      9  C   UNL     1       7.842   2.129  24.882  0.00  0.00    +0.000 C 
ATOM     10  C   UNL     1       9.046   1.533  25.179  0.00  0.00    +0.000 C 
ATOM     11  C   UNL     1       9.351   0.027  25.149  0.00  0.00    +0.000 C 
ATOM     12  C   UNL     1       8.018  -0.707  24.996  0.00  0.00    +0.000 C 
ATOM     13  C   UNL     1       7.222  -0.025  23.817  0.00  0.00    +0.000 C 
ATOM     14  C   UNL     1       6.329  -1.041  23.098  0.00  0.00    +0.000 C 
ATOM     15  C   UNL     1       7.005  -2.420  22.893  0.00  0.00    +0.000 C 
ATOM     16  C   UNL     1       7.847  -3.066  24.059  0.00  0.00    +0.000 C 
ATOM     17  C   UNL     1       7.742  -2.216  25.339  0.00  0.00    +0.000 C 
ATOM     18  C   UNL     1       6.288  -2.406  25.920  0.00  0.00    +0.000 C 
ATOM     19  C   UNL     1       5.820  -3.851  26.087  0.00  0.00    +0.000 C 
ATOM     20  C   UNL     1       6.016  -4.671  24.826  0.00  0.00    +0.000 C 
ATOM     21  C   UNL     1       7.459  -4.594  24.255  0.00  0.00    +0.000 C 
ATOM     22  C   UNL     1       7.555  -5.343  22.902  0.00  0.00    +0.000 C 
ATOM     23  C   UNL     1       8.439  -5.356  25.186  0.00  0.00    +0.000 C 
ATOM     24  C   UNL     1       8.702  -2.582  26.500  0.00  0.00    +0.000 C 
ATOM     25  C   UNL     1       8.128   0.498  22.600  0.00  0.00    +0.000 C 
ATOM     26  C   UNL     1       7.692   3.650  24.787  0.00  0.00    +0.000 C 
ATOM     27  C   UNL     1       8.980   4.461  24.436  0.00  0.00    +0.000 C 
ATOM     28  C   UNL     1       5.798   0.874  25.914  0.00  0.00    +0.000 C 
ATOM     29  C   UNL     1       8.918   6.027  26.422  0.00  0.00    +0.000 C 
ENDROOT
BRANCH  20  30
ATOM     30  O   UNL     1       5.616  -6.022  25.044  0.00  0.00    +0.000 OA
ATOM     31  H   UNL     1       5.291  -6.089  25.954  0.00  0.00    +0.000 HD
ENDBRANCH  20  30
BRANCH   5  32
ATOM     32  C   UNL     1       6.301   4.507  22.526  0.00  0.00    +0.000 C 
ATOM     33  O   UNL     1       7.158   4.168  21.723  0.00  0.00    +0.000 OA
BRANCH  32  34
ATOM     34  O   UNL     1       5.210   5.173  22.119  0.00  0.00    +0.000 OA
ATOM     35  H   UNL     1       5.390   5.909  21.506  0.00  0.00    +0.000 HD
ENDBRANCH  32  34
ENDBRANCH   5  32
TORSDOF 3
ENDMDL
MODEL 8
REMARK VINA RESULT:      -7.1      2.655      8.242
REMARK  Name = 
REMARK  10 active torsions:
REMARK  status: ('A' for Active; 'I' for Inactive)
REMARK    1  A    between atoms: C_1  and  C_2
REMARK    2  A    between atoms: C_2  and  C_33
REMARK    3  A    between atoms: C_5  and  C_30
REMARK    4  A    between atoms: C_8  and  C_29
REMARK    5  A    between atoms: C_13  and  C_26
REMARK    6  A    between atoms: C_17  and  C_25
REMARK    7  A    between atoms: C_20  and  O_24
REMARK    8  A    between atoms: C_21  and  C_22
REMARK    9  A    between atoms: C_21  and  C_23
REMARK   10  A    between atoms: C_30  and  O_32
REMARK                            x       y       z     vdW  Elec       q    Type
REMARK                         _______ _______ _______ _____ _____    ______ ____
ROOT
ATOM      1  C   UNL     1       7.193   5.384  24.186  0.00  0.00    +0.000 C 
ATOM      2  C   UNL     1       7.023   4.040  23.451  0.00  0.00    +0.000 C 
ATOM      3  C   UNL     1       8.261   3.818  22.555  0.00  0.00    +0.000 C 
ATOM      4  C   UNL     1       8.294   2.440  21.876  0.00  0.00    +0.000 C 
ATOM      5  C   UNL     1       8.337   1.324  22.952  0.00  0.00    +0.000 C 
ATOM      6  C   UNL     1       8.362  -0.083  22.344  0.00  0.00    +0.000 C 
ATOM      7  C   UNL     1       8.341  -1.119  23.497  0.00  0.00    +0.000 C 
ATOM      8  C   UNL     1       6.968  -1.135  24.195  0.00  0.00    +0.000 C 
ATOM      9  C   UNL     1       6.391   0.294  24.510  0.00  0.00    +0.000 C 
ATOM     10  C   UNL     1       5.425   0.453  25.478  0.00  0.00    +0.000 C 
ATOM     11  C   UNL     1       4.883  -0.640  26.413  0.00  0.00    +0.000 C 
ATOM     12  C   UNL     1       5.404  -1.983  25.899  0.00  0.00    +0.000 C 
ATOM     13  C   UNL     1       6.955  -1.837  25.650  0.00  0.00    +0.000 C 
ATOM     14  C   UNL     1       7.675  -3.169  25.879  0.00  0.00    +0.000 C 
ATOM     15  C   UNL     1       7.149  -3.951  27.109  0.00  0.00    +0.000 C 
ATOM     16  C   UNL     1       5.599  -4.041  27.381  0.00  0.00    +0.000 C 
ATOM     17  C   UNL     1       4.807  -3.400  26.226  0.00  0.00    +0.000 C 
ATOM     18  C   UNL     1       4.919  -4.361  24.980  0.00  0.00    +0.000 C 
ATOM     19  C   UNL     1       4.576  -5.827  25.236  0.00  0.00    +0.000 C 
ATOM     20  C   UNL     1       5.318  -6.394  26.431  0.00  0.00    +0.000 C 
ATOM     21  C   UNL     1       5.171  -5.533  27.717  0.00  0.00    +0.000 C 
ATOM     22  C   UNL     1       6.057  -6.095  28.857  0.00  0.00    +0.000 C 
ATOM     23  C   UNL     1       3.725  -5.644  28.266  0.00  0.00    +0.000 C 
ATOM     24  C   UNL     1       3.288  -3.191  26.453  0.00  0.00    +0.000 C 
ATOM     25  C   UNL     1       7.724  -0.891  26.694  0.00  0.00    +0.000 C 
ATOM     26  C   UNL     1       6.974   1.486  23.745  0.00  0.00    +0.000 C 
ATOM     27  C   UNL     1       6.920   2.873  24.461  0.00  0.00    +0.000 C 
ATOM     28  C   UNL     1       6.083  -1.885  23.105  0.00  0.00    +0.000 C 
ATOM     29  C   UNL     1       5.718   4.131  22.625  0.00  0.00    +0.000 C 
ENDROOT
BRANCH  20  30
ATOM     30  O   UNL     1       4.928  -7.746  26.664  0.00  0.00    +0.000 OA
ATOM     31  H   UNL     1       5.716  -8.300  26.563  0.00  0.00    +0.000 HD
ENDBRANCH  20  30
BRANCH   5  32
ATOM     32  C   UNL     1       9.757   1.462  23.573  0.00  0.00    +0.000 C 
ATOM     33  O   UNL     1      10.782   1.490  22.907  0.00  0.00    +0.000 OA
BRANCH  32  34
ATOM     34  O   UNL     1       9.815   1.483  24.914  0.00  0.00    +0.000 OA
ATOM     35  H   UNL     1      10.129   0.655  25.319  0.00  0.00    +0.000 HD
ENDBRANCH  32  34
ENDBRANCH   5  32
TORSDOF 3
ENDMDL
MODEL 9
REMARK VINA RESULT:      -7.1      1.735      2.779
REMARK  Name = 
REMARK  10 active torsions:
REMARK  status: ('A' for Active; 'I' for Inactive)
REMARK    1  A    between atoms: C_1  and  C_2
REMARK    2  A    between atoms: C_2  and  C_33
REMARK    3  A    between atoms: C_5  and  C_30
REMARK    4  A    between atoms: C_8  and  C_29
REMARK    5  A    between atoms: C_13  and  C_26
REMARK    6  A    between atoms: C_17  and  C_25
REMARK    7  A    between atoms: C_20  and  O_24
REMARK    8  A    between atoms: C_21  and  C_22
REMARK    9  A    between atoms: C_21  and  C_23
REMARK   10  A    between atoms: C_30  and  O_32
REMARK                            x       y       z     vdW  Elec       q    Type
REMARK                         _______ _______ _______ _____ _____    ______ ____
ROOT
ATOM      1  C   UNL     1       4.575  -5.659  26.391  0.00  0.00    +0.000 C 
ATOM      2  C   UNL     1       5.915  -4.899  26.359  0.00  0.00    +0.000 C 
ATOM      3  C   UNL     1       6.924  -5.733  25.539  0.00  0.00    +0.000 C 
ATOM      4  C   UNL     1       8.264  -5.021  25.299  0.00  0.00    +0.000 C 
ATOM      5  C   UNL     1       8.030  -3.717  24.494  0.00  0.00    +0.000 C 
ATOM      6  C   UNL     1       9.327  -2.945  24.225  0.00  0.00    +0.000 C 
ATOM      7  C   UNL     1       8.977  -1.636  23.473  0.00  0.00    +0.000 C 
ATOM      8  C   UNL     1       8.248  -0.648  24.404  0.00  0.00    +0.000 C 
ATOM      9  C   UNL     1       7.106  -1.303  25.267  0.00  0.00    +0.000 C 
ATOM     10  C   UNL     1       6.109  -0.520  25.803  0.00  0.00    +0.000 C 
ATOM     11  C   UNL     1       5.903   0.985  25.566  0.00  0.00    +0.000 C 
ATOM     12  C   UNL     1       7.150   1.511  24.852  0.00  0.00    +0.000 C 
ATOM     13  C   UNL     1       7.463   0.543  23.646  0.00  0.00    +0.000 C 
ATOM     14  C   UNL     1       8.124   1.301  22.492  0.00  0.00    +0.000 C 
ATOM     15  C   UNL     1       7.503   2.698  22.236  0.00  0.00    +0.000 C 
ATOM     16  C   UNL     1       7.140   3.634  23.451  0.00  0.00    +0.000 C 
ATOM     17  C   UNL     1       7.616   3.010  24.777  0.00  0.00    +0.000 C 
ATOM     18  C   UNL     1       9.189   3.115  24.816  0.00  0.00    +0.000 C 
ATOM     19  C   UNL     1       9.773   4.498  24.530  0.00  0.00    +0.000 C 
ATOM     20  C   UNL     1       9.216   5.107  23.257  0.00  0.00    +0.000 C 
ATOM     21  C   UNL     1       7.663   5.112  23.201  0.00  0.00    +0.000 C 
ATOM     22  C   UNL     1       7.166   5.624  21.825  0.00  0.00    +0.000 C 
ATOM     23  C   UNL     1       7.099   6.139  24.218  0.00  0.00    +0.000 C 
ATOM     24  C   UNL     1       7.124   3.686  26.083  0.00  0.00    +0.000 C 
ATOM     25  C   UNL     1       6.172  -0.065  22.912  0.00  0.00    +0.000 C 
ATOM     26  C   UNL     1       7.123  -2.824  25.440  0.00  0.00    +0.000 C 
ATOM     27  C   UNL     1       5.745  -3.517  25.688  0.00  0.00    +0.000 C 
ATOM     28  C   UNL     1       9.449  -0.153  25.322  0.00  0.00    +0.000 C 
ATOM     29  C   UNL     1       6.373  -4.715  27.826  0.00  0.00    +0.000 C 
ENDROOT
BRANCH  20  30
ATOM     30  O   UNL     1       9.747   6.415  23.058  0.00  0.00    +0.000 OA
ATOM     31  H   UNL     1      10.001   6.491  22.127  0.00  0.00    +0.000 HD
ENDBRANCH  20  30
BRANCH   5  32
ATOM     32  C   UNL     1       7.623  -4.222  23.079  0.00  0.00    +0.000 C 
ATOM     33  O   UNL     1       6.764  -3.683  22.395  0.00  0.00    +0.000 OA
BRANCH  32  34
ATOM     34  O   UNL     1       8.224  -5.346  22.658  0.00  0.00    +0.000 OA
ATOM     35  H   UNL     1       9.151  -5.438  22.939  0.00  0.00    +0.000 HD
ENDBRANCH  32  34
ENDBRANCH   5  32
TORSDOF 3
ENDMDL
