MODEL 1
REMARK VINA RESULT:      -7.1      0.000      0.000
REMARK  Name = 
REMARK  9 active torsions:
REMARK  status: ('A' for Active; 'I' for Inactive)
REMARK    1  A    between atoms: C_1  and  C_2
REMARK    2  A    between atoms: C_2  and  C_3
REMARK    3  A    between atoms: C_2  and  C_4
REMARK    4  A    between atoms: C_5  and  O_24
REMARK    5  A    between atoms: C_6  and  O_23
REMARK    6  A    between atoms: C_13  and  C_20
REMARK    7  A    between atoms: C_17  and  C_18
REMARK    8  A    between atoms: C_17  and  C_19
REMARK    9  A    between atoms: C_20  and  O_22
REMARK                            x       y       z     vdW  Elec       q    Type
REMARK                         _______ _______ _______ _____ _____    ______ ____
ROOT
ATOM      1  C   UNL     1       7.230  -4.182  25.175  0.00  0.00    +0.000 A 
ATOM      2  C   UNL     1       7.463  -4.072  23.810  0.00  0.00    +0.000 A 
ATOM      3  C   UNL     1       8.049  -2.908  23.266  0.00  0.00    +0.000 A 
ATOM      4  C   UNL     1       8.518  -1.826  24.037  0.00  0.00    +0.000 A 
ATOM      5  C   UNL     1       8.023  -1.848  25.352  0.00  0.00    +0.000 A 
ATOM      6  C   UNL     1       7.461  -3.020  25.918  0.00  0.00    +0.000 A 
ATOM      7  C   UNL     1       7.742  -0.581  26.118  0.00  0.00    +0.000 C 
ATOM      8  C   UNL     1       8.273   0.658  25.452  0.00  0.00    +0.000 C 
ATOM      9  C   UNL     1       8.210   0.610  23.871  0.00  0.00    +0.000 C 
ATOM     10  C   UNL     1       9.213  -0.542  23.445  0.00  0.00    +0.000 C 
ATOM     11  C   UNL     1      10.658  -0.034  23.959  0.00  0.00    +0.000 C 
ATOM     12  C   UNL     1      10.825   1.520  24.004  0.00  0.00    +0.000 C 
ATOM     13  C   UNL     1       9.966   2.233  22.961  0.00  0.00    +0.000 C 
ATOM     14  C   UNL     1       8.460   2.029  23.237  0.00  0.00    +0.000 C 
ATOM     15  C   UNL     1       7.624   2.174  21.940  0.00  0.00    +0.000 C 
ATOM     16  C   UNL     1       7.972   3.204  24.129  0.00  0.00    +0.000 C 
ENDROOT
BRANCH   1  18
ATOM     17  C   UNL     1       7.161  -5.358  27.335  0.00  0.00    +0.000 C 
ATOM     18  C   UNL     1       6.792  -5.464  25.855  0.00  0.00    +0.000 C 
ATOM     19  C   UNL     1       5.304  -5.811  25.714  0.00  0.00    +0.000 C 
ENDBRANCH   1  18
BRANCH  10  20
ATOM     20  C   UNL     1       9.625  -0.847  21.971  0.00  0.00    +0.000 C 
ATOM     21  O   UNL     1       9.108  -0.406  20.960  0.00  0.00    +0.000 OA
BRANCH  20  22
ATOM     22  O   UNL     1      10.782  -1.582  21.868  0.00  0.00    +0.000 OA
ATOM     23  H   UNL     1      11.422  -1.385  22.593  0.00  0.00    +0.000 HD
ENDBRANCH  20  22
ENDBRANCH  10  20
BRANCH   3  24
ATOM     24  O   UNL     1       8.023  -2.835  21.896  0.00  0.00    +0.000 OA
ATOM     25  H   UNL     1       7.131  -2.507  21.657  0.00  0.00    +0.000 HD
ENDBRANCH   3  24
BRANCH   2  26
ATOM     26  O   UNL     1       7.127  -5.035  22.893  0.00  0.00    +0.000 OA
ATOM     27  H   UNL     1       7.232  -5.913  23.287  0.00  0.00    +0.000 HD
ENDBRANCH   2  26
TORSDOF 5
ENDMDL
MODEL 2
REMARK VINA RESULT:      -6.9      1.394      6.089
REMARK  Name = 
REMARK  9 active torsions:
REMARK  status: ('A' for Active; 'I' for Inactive)
REMARK    1  A    between atoms: C_1  and  C_2
REMARK    2  A    between atoms: C_2  and  C_3
REMARK    3  A    between atoms: C_2  and  C_4
REMARK    4  A    between atoms: C_5  and  O_24
REMARK    5  A    between atoms: C_6  and  O_23
REMARK    6  A    between atoms: C_13  and  C_20
REMARK    7  A    between atoms: C_17  and  C_18
REMARK    8  A    between atoms: C_17  and  C_19
REMARK    9  A    between atoms: C_20  and  O_22
REMARK                            x       y       z     vdW  Elec       q    Type
REMARK                         _______ _______ _______ _____ _____    ______ ____
ROOT
ATOM      1  C   UNL     1       9.237   1.803  23.578  0.00  0.00    +0.000 A 
ATOM      2  C   UNL     1       9.076   0.936  22.504  0.00  0.00    +0.000 A 
ATOM      3  C   UNL     1       8.483  -0.333  22.680  0.00  0.00    +0.000 A 
ATOM      4  C   UNL     1       7.936  -0.787  23.898  0.00  0.00    +0.000 A 
ATOM      5  C   UNL     1       8.358  -0.019  24.996  0.00  0.00    +0.000 A 
ATOM      6  C   UNL     1       8.927   1.268  24.832  0.00  0.00    +0.000 A 
ATOM      7  C   UNL     1       8.554  -0.625  26.362  0.00  0.00    +0.000 C 
ATOM      8  C   UNL     1       8.019  -2.025  26.484  0.00  0.00    +0.000 C 
ATOM      9  C   UNL     1       8.171  -2.884  25.163  0.00  0.00    +0.000 C 
ATOM     10  C   UNL     1       7.232  -2.183  24.095  0.00  0.00    +0.000 C 
ATOM     11  C   UNL     1       5.744  -2.315  24.713  0.00  0.00    +0.000 C 
ATOM     12  C   UNL     1       5.524  -3.568  25.621  0.00  0.00    +0.000 C 
ATOM     13  C   UNL     1       6.415  -4.744  25.225  0.00  0.00    +0.000 C 
ATOM     14  C   UNL     1       7.909  -4.413  25.432  0.00  0.00    +0.000 C 
ATOM     15  C   UNL     1       8.810  -5.267  24.504  0.00  0.00    +0.000 C 
ATOM     16  C   UNL     1       8.308  -4.871  26.863  0.00  0.00    +0.000 C 
ENDROOT
BRANCH   1  18
ATOM     17  C   UNL     1       8.978   4.059  24.525  0.00  0.00    +0.000 C 
ATOM     18  C   UNL     1       9.679   3.246  23.436  0.00  0.00    +0.000 C 
ATOM     19  C   UNL     1      11.193   3.482  23.505  0.00  0.00    +0.000 C 
ENDBRANCH   1  18
BRANCH  10  20
ATOM     20  C   UNL     1       6.912  -2.772  22.686  0.00  0.00    +0.000 C 
ATOM     21  O   UNL     1       7.547  -3.620  22.086  0.00  0.00    +0.000 OA
BRANCH  20  22
ATOM     22  O   UNL     1       5.703  -2.356  22.182  0.00  0.00    +0.000 OA
ATOM     23  H   UNL     1       5.013  -2.258  22.881  0.00  0.00    +0.000 HD
ENDBRANCH  20  22
ENDBRANCH  10  20
BRANCH   3  24
ATOM     24  O   UNL     1       8.581  -1.173  21.599  0.00  0.00    +0.000 OA
ATOM     25  H   UNL     1       9.370  -0.879  21.098  0.00  0.00    +0.000 HD
ENDBRANCH   3  24
BRANCH   2  26
ATOM     26  O   UNL     1       9.494   1.208  21.227  0.00  0.00    +0.000 OA
ATOM     27  H   UNL     1       9.678   2.154  21.137  0.00  0.00    +0.000 HD
ENDBRANCH   2  26
TORSDOF 5
ENDMDL
MODEL 3
REMARK VINA RESULT:      -6.9      1.661      6.307
REMARK  Name = 
REMARK  9 active torsions:
REMARK  status: ('A' for Active; 'I' for Inactive)
REMARK    1  A    between atoms: C_1  and  C_2
REMARK    2  A    between atoms: C_2  and  C_3
REMARK    3  A    between atoms: C_2  and  C_4
REMARK    4  A    between atoms: C_5  and  O_24
REMARK    5  A    between atoms: C_6  and  O_23
REMARK    6  A    between atoms: C_13  and  C_20
REMARK    7  A    between atoms: C_17  and  C_18
REMARK    8  A    between atoms: C_17  and  C_19
REMARK    9  A    between atoms: C_20  and  O_22
REMARK                            x       y       z     vdW  Elec       q    Type
REMARK                         _______ _______ _______ _____ _____    ______ ____
ROOT
ATOM      1  C   UNL     1       8.738  -0.208  22.570  0.00  0.00    +0.000 A 
ATOM      2  C   UNL     1       9.564  -1.293  22.833  0.00  0.00    +0.000 A 
ATOM      3  C   UNL     1       9.042  -2.487  23.379  0.00  0.00    +0.000 A 
ATOM      4  C   UNL     1       7.670  -2.713  23.614  0.00  0.00    +0.000 A 
ATOM      5  C   UNL     1       6.920  -1.526  23.601  0.00  0.00    +0.000 A 
ATOM      6  C   UNL     1       7.423  -0.331  23.029  0.00  0.00    +0.000 A 
ATOM      7  C   UNL     1       5.704  -1.344  24.474  0.00  0.00    +0.000 C 
ATOM      8  C   UNL     1       5.242  -2.611  25.139  0.00  0.00    +0.000 C 
ATOM      9  C   UNL     1       6.422  -3.584  25.547  0.00  0.00    +0.000 C 
ATOM     10  C   UNL     1       7.071  -4.056  24.180  0.00  0.00    +0.000 C 
ATOM     11  C   UNL     1       5.889  -4.855  23.423  0.00  0.00    +0.000 C 
ATOM     12  C   UNL     1       4.856  -5.546  24.372  0.00  0.00    +0.000 C 
ATOM     13  C   UNL     1       5.471  -5.953  25.711  0.00  0.00    +0.000 C 
ATOM     14  C   UNL     1       5.927  -4.719  26.519  0.00  0.00    +0.000 C 
ATOM     15  C   UNL     1       7.059  -5.083  27.514  0.00  0.00    +0.000 C 
ATOM     16  C   UNL     1       4.750  -4.285  27.436  0.00  0.00    +0.000 C 
ENDROOT
BRANCH   1  18
ATOM     17  C   UNL     1       7.935   1.840  21.468  0.00  0.00    +0.000 C 
ATOM     18  C   UNL     1       9.183   1.025  21.809  0.00  0.00    +0.000 C 
ATOM     19  C   UNL     1      10.203   1.914  22.532  0.00  0.00    +0.000 C 
ENDBRANCH   1  18
BRANCH  10  20
ATOM     20  C   UNL     1       8.163  -5.165  24.063  0.00  0.00    +0.000 C 
ATOM     21  O   UNL     1       8.890  -5.573  24.951  0.00  0.00    +0.000 OA
BRANCH  20  22
ATOM     22  O   UNL     1       8.162  -5.807  22.848  0.00  0.00    +0.000 OA
ATOM     23  H   UNL     1       7.518  -6.555  22.814  0.00  0.00    +0.000 HD
ENDBRANCH  20  22
ENDBRANCH  10  20
BRANCH   3  24
ATOM     24  O   UNL     1       9.984  -3.394  23.793  0.00  0.00    +0.000 OA
ATOM     25  H   UNL     1      10.338  -3.810  22.979  0.00  0.00    +0.000 HD
ENDBRANCH   3  24
BRANCH   2  26
ATOM     26  O   UNL     1      10.919  -1.295  22.628  0.00  0.00    +0.000 OA
ATOM     27  H   UNL     1      11.375  -1.537  23.448  0.00  0.00    +0.000 HD
ENDBRANCH   2  26
TORSDOF 5
ENDMDL
MODEL 4
REMARK VINA RESULT:      -6.7      1.558      2.029
REMARK  Name = 
REMARK  9 active torsions:
REMARK  status: ('A' for Active; 'I' for Inactive)
REMARK    1  A    between atoms: C_1  and  C_2
REMARK    2  A    between atoms: C_2  and  C_3
REMARK    3  A    between atoms: C_2  and  C_4
REMARK    4  A    between atoms: C_5  and  O_24
REMARK    5  A    between atoms: C_6  and  O_23
REMARK    6  A    between atoms: C_13  and  C_20
REMARK    7  A    between atoms: C_17  and  C_18
REMARK    8  A    between atoms: C_17  and  C_19
REMARK    9  A    between atoms: C_20  and  O_22
REMARK                            x       y       z     vdW  Elec       q    Type
REMARK                         _______ _______ _______ _____ _____    ______ ____
ROOT
ATOM      1  C   UNL     1       7.420  -4.071  25.406  0.00  0.00    +0.000 A 
ATOM      2  C   UNL     1       8.643  -3.772  24.819  0.00  0.00    +0.000 A 
ATOM      3  C   UNL     1       8.983  -2.442  24.487  0.00  0.00    +0.000 A 
ATOM      4  C   UNL     1       8.182  -1.323  24.794  0.00  0.00    +0.000 A 
ATOM      5  C   UNL     1       6.864  -1.680  25.124  0.00  0.00    +0.000 A 
ATOM      6  C   UNL     1       6.518  -3.005  25.487  0.00  0.00    +0.000 A 
ATOM      7  C   UNL     1       5.693  -0.791  24.793  0.00  0.00    +0.000 C 
ATOM      8  C   UNL     1       6.089   0.583  24.327  0.00  0.00    +0.000 C 
ATOM      9  C   UNL     1       7.421   0.607  23.471  0.00  0.00    +0.000 C 
ATOM     10  C   UNL     1       8.571   0.169  24.470  0.00  0.00    +0.000 C 
ATOM     11  C   UNL     1       8.583   1.319  25.605  0.00  0.00    +0.000 C 
ATOM     12  C   UNL     1       8.122   2.729  25.110  0.00  0.00    +0.000 C 
ATOM     13  C   UNL     1       8.419   2.957  23.629  0.00  0.00    +0.000 C 
ATOM     14  C   UNL     1       7.614   1.986  22.738  0.00  0.00    +0.000 C 
ATOM     15  C   UNL     1       8.317   1.758  21.375  0.00  0.00    +0.000 C 
ATOM     16  C   UNL     1       6.277   2.682  22.356  0.00  0.00    +0.000 C 
ENDROOT
BRANCH   1  18
ATOM     17  C   UNL     1       7.193  -5.360  27.489  0.00  0.00    +0.000 C 
ATOM     18  C   UNL     1       7.065  -5.433  25.967  0.00  0.00    +0.000 C 
ATOM     19  C   UNL     1       5.676  -5.961  25.586  0.00  0.00    +0.000 C 
ENDBRANCH   1  18
BRANCH  10  20
ATOM     20  C   UNL     1      10.094   0.213  24.130  0.00  0.00    +0.000 C 
ATOM     21  O   UNL     1      10.595   0.256  23.020  0.00  0.00    +0.000 OA
BRANCH  20  22
ATOM     22  O   UNL     1      10.897   0.359  25.236  0.00  0.00    +0.000 OA
ATOM     23  H   UNL     1      11.854   0.432  25.003  0.00  0.00    +0.000 HD
ENDBRANCH  20  22
ENDBRANCH  10  20
BRANCH   3  24
ATOM     24  O   UNL     1      10.112  -2.308  23.720  0.00  0.00    +0.000 OA
ATOM     25  H   UNL     1      10.228  -3.163  23.254  0.00  0.00    +0.000 HD
ENDBRANCH   3  24
BRANCH   2  26
ATOM     26  O   UNL     1       9.585  -4.711  24.485  0.00  0.00    +0.000 OA
ATOM     27  H   UNL     1       9.979  -5.080  25.289  0.00  0.00    +0.000 HD
ENDBRANCH   2  26
TORSDOF 5
ENDMDL
MODEL 5
REMARK VINA RESULT:      -6.7      1.802      2.132
REMARK  Name = 
REMARK  9 active torsions:
REMARK  status: ('A' for Active; 'I' for Inactive)
REMARK    1  A    between atoms: C_1  and  C_2
REMARK    2  A    between atoms: C_2  and  C_3
REMARK    3  A    between atoms: C_2  and  C_4
REMARK    4  A    between atoms: C_5  and  O_24
REMARK    5  A    between atoms: C_6  and  O_23
REMARK    6  A    between atoms: C_13  and  C_20
REMARK    7  A    between atoms: C_17  and  C_18
REMARK    8  A    between atoms: C_17  and  C_19
REMARK    9  A    between atoms: C_20  and  O_22
REMARK                            x       y       z     vdW  Elec       q    Type
REMARK                         _______ _______ _______ _____ _____    ______ ____
ROOT
ATOM      1  C   UNL     1       4.710  -3.842  24.124  0.00  0.00    +0.000 A 
ATOM      2  C   UNL     1       5.737  -4.175  23.250  0.00  0.00    +0.000 A 
ATOM      3  C   UNL     1       6.889  -3.366  23.142  0.00  0.00    +0.000 A 
ATOM      4  C   UNL     1       7.138  -2.236  23.948  0.00  0.00    +0.000 A 
ATOM      5  C   UNL     1       5.984  -1.780  24.605  0.00  0.00    +0.000 A 
ATOM      6  C   UNL     1       4.833  -2.595  24.745  0.00  0.00    +0.000 A 
ATOM      7  C   UNL     1       5.759  -0.318  24.897  0.00  0.00    +0.000 C 
ATOM      8  C   UNL     1       6.972   0.539  24.658  0.00  0.00    +0.000 C 
ATOM      9  C   UNL     1       7.860   0.060  23.438  0.00  0.00    +0.000 C 
ATOM     10  C   UNL     1       8.440  -1.352  23.868  0.00  0.00    +0.000 C 
ATOM     11  C   UNL     1       9.347  -1.040  25.168  0.00  0.00    +0.000 C 
ATOM     12  C   UNL     1       9.978   0.390  25.196  0.00  0.00    +0.000 C 
ATOM     13  C   UNL     1      10.234   0.946  23.796  0.00  0.00    +0.000 C 
ATOM     14  C   UNL     1       8.913   1.155  23.024  0.00  0.00    +0.000 C 
ATOM     15  C   UNL     1       9.141   1.103  21.491  0.00  0.00    +0.000 C 
ATOM     16  C   UNL     1       8.432   2.610  23.280  0.00  0.00    +0.000 C 
ENDROOT
BRANCH   1  18
ATOM     17  C   UNL     1       4.014  -5.779  25.472  0.00  0.00    +0.000 C 
ATOM     18  C   UNL     1       3.543  -4.755  24.439  0.00  0.00    +0.000 C 
ATOM     19  C   UNL     1       2.274  -4.054  24.942  0.00  0.00    +0.000 C 
ENDBRANCH   1  18
BRANCH  10  20
ATOM     20  C   UNL     1       9.517  -2.142  23.061  0.00  0.00    +0.000 C 
ATOM     21  O   UNL     1       9.843  -1.959  21.902  0.00  0.00    +0.000 OA
BRANCH  20  22
ATOM     22  O   UNL     1      10.236  -3.025  23.830  0.00  0.00    +0.000 OA
ATOM     23  H   UNL     1      11.115  -3.244  23.435  0.00  0.00    +0.000 HD
ENDBRANCH  20  22
ENDBRANCH  10  20
BRANCH   3  24
ATOM     24  O   UNL     1       7.720  -3.679  22.096  0.00  0.00    +0.000 OA
ATOM     25  H   UNL     1       7.141  -4.008  21.377  0.00  0.00    +0.000 HD
ENDBRANCH   3  24
BRANCH   2  26
ATOM     26  O   UNL     1       5.713  -5.262  22.414  0.00  0.00    +0.000 OA
ATOM     27  H   UNL     1       6.501  -5.806  22.561  0.00  0.00    +0.000 HD
ENDBRANCH   2  26
TORSDOF 5
ENDMDL
MODEL 6
REMARK VINA RESULT:      -6.6      1.681      6.079
REMARK  Name = 
REMARK  9 active torsions:
REMARK  status: ('A' for Active; 'I' for Inactive)
REMARK    1  A    between atoms: C_1  and  C_2
REMARK    2  A    between atoms: C_2  and  C_3
REMARK    3  A    between atoms: C_2  and  C_4
REMARK    4  A    between atoms: C_5  and  O_24
REMARK    5  A    between atoms: C_6  and  O_23
REMARK    6  A    between atoms: C_13  and  C_20
REMARK    7  A    between atoms: C_17  and  C_18
REMARK    8  A    between atoms: C_17  and  C_19
REMARK    9  A    between atoms: C_20  and  O_22
REMARK                            x       y       z     vdW  Elec       q    Type
REMARK                         _______ _______ _______ _____ _____    ______ ____
ROOT
ATOM      1  C   UNL     1       8.612   2.802  24.463  0.00  0.00    +0.000 A 
ATOM      2  C   UNL     1       9.738   2.100  24.051  0.00  0.00    +0.000 A 
ATOM      3  C   UNL     1       9.669   0.718  23.768  0.00  0.00    +0.000 A 
ATOM      4  C   UNL     1       8.476  -0.032  23.787  0.00  0.00    +0.000 A 
ATOM      5  C   UNL     1       7.436   0.629  24.462  0.00  0.00    +0.000 A 
ATOM      6  C   UNL     1       7.482   2.021  24.725  0.00  0.00    +0.000 A 
ATOM      7  C   UNL     1       6.388  -0.125  25.240  0.00  0.00    +0.000 C 
ATOM      8  C   UNL     1       6.416  -1.611  25.011  0.00  0.00    +0.000 C 
ATOM      9  C   UNL     1       7.871  -2.195  24.793  0.00  0.00    +0.000 C 
ATOM     10  C   UNL     1       8.378  -1.563  23.429  0.00  0.00    +0.000 C 
ATOM     11  C   UNL     1       7.350  -2.122  22.316  0.00  0.00    +0.000 C 
ATOM     12  C   UNL     1       6.729  -3.520  22.642  0.00  0.00    +0.000 C 
ATOM     13  C   UNL     1       7.655  -4.388  23.493  0.00  0.00    +0.000 C 
ATOM     14  C   UNL     1       7.885  -3.766  24.888  0.00  0.00    +0.000 C 
ATOM     15  C   UNL     1       9.229  -4.239  25.501  0.00  0.00    +0.000 C 
ATOM     16  C   UNL     1       6.812  -4.342  25.853  0.00  0.00    +0.000 C 
ENDROOT
BRANCH   1  18
ATOM     17  C   UNL     1       7.745   4.854  23.420  0.00  0.00    +0.000 C 
ATOM     18  C   UNL     1       8.561   4.310  24.593  0.00  0.00    +0.000 C 
ATOM     19  C   UNL     1       7.987   4.839  25.914  0.00  0.00    +0.000 C 
ENDBRANCH   1  18
BRANCH  10  20
ATOM     20  C   UNL     1       9.697  -1.980  22.706  0.00  0.00    +0.000 C 
ATOM     21  O   UNL     1      10.626  -2.608  23.181  0.00  0.00    +0.000 OA
BRANCH  20  22
ATOM     22  O   UNL     1       9.690  -1.707  21.359  0.00  0.00    +0.000 OA
ATOM     23  H   UNL     1       8.839  -1.307  21.057  0.00  0.00    +0.000 HD
ENDBRANCH  20  22
ENDBRANCH  10  20
BRANCH   3  24
ATOM     24  O   UNL     1      10.882   0.103  23.587  0.00  0.00    +0.000 OA
ATOM     25  H   UNL     1      11.553   0.818  23.598  0.00  0.00    +0.000 HD
ENDBRANCH   3  24
BRANCH   2  26
ATOM     26  O   UNL     1      10.985   2.656  23.920  0.00  0.00    +0.000 OA
ATOM     27  H   UNL     1      11.651   1.956  23.859  0.00  0.00    +0.000 HD
ENDBRANCH   2  26
TORSDOF 5
ENDMDL
MODEL 7
REMARK VINA RESULT:      -6.4      2.638      6.968
REMARK  Name = 
REMARK  9 active torsions:
REMARK  status: ('A' for Active; 'I' for Inactive)
REMARK    1  A    between atoms: C_1  and  C_2
REMARK    2  A    between atoms: C_2  and  C_3
REMARK    3  A    between atoms: C_2  and  C_4
REMARK    4  A    between atoms: C_5  and  O_24
REMARK    5  A    between atoms: C_6  and  O_23
REMARK    6  A    between atoms: C_13  and  C_20
REMARK    7  A    between atoms: C_17  and  C_18
REMARK    8  A    between atoms: C_17  and  C_19
REMARK    9  A    between atoms: C_20  and  O_22
REMARK                            x       y       z     vdW  Elec       q    Type
REMARK                         _______ _______ _______ _____ _____    ______ ____
ROOT
ATOM      1  C   UNL     1       9.437   5.292  24.780  0.00  0.00    +0.000 A 
ATOM      2  C   UNL     1      10.175   4.704  23.760  0.00  0.00    +0.000 A 
ATOM      3  C   UNL     1       9.874   3.400  23.307  0.00  0.00    +0.000 A 
ATOM      4  C   UNL     1       8.780   2.638  23.765  0.00  0.00    +0.000 A 
ATOM      5  C   UNL     1       8.240   3.138  24.961  0.00  0.00    +0.000 A 
ATOM      6  C   UNL     1       8.512   4.454  25.410  0.00  0.00    +0.000 A 
ATOM      7  C   UNL     1       7.635   2.230  26.001  0.00  0.00    +0.000 C 
ATOM      8  C   UNL     1       7.437   0.816  25.527  0.00  0.00    +0.000 C 
ATOM      9  C   UNL     1       8.564   0.312  24.537  0.00  0.00    +0.000 C 
ATOM     10  C   UNL     1       8.408   1.202  23.234  0.00  0.00    +0.000 C 
ATOM     11  C   UNL     1       6.935   0.848  22.674  0.00  0.00    +0.000 C 
ATOM     12  C   UNL     1       6.440  -0.597  23.005  0.00  0.00    +0.000 C 
ATOM     13  C   UNL     1       7.589  -1.595  23.137  0.00  0.00    +0.000 C 
ATOM     14  C   UNL     1       8.502  -1.248  24.333  0.00  0.00    +0.000 C 
ATOM     15  C   UNL     1       9.935  -1.804  24.130  0.00  0.00    +0.000 C 
ATOM     16  C   UNL     1       7.976  -2.018  25.577  0.00  0.00    +0.000 C 
ENDROOT
BRANCH   1  18
ATOM     17  C   UNL     1       8.351   7.108  26.035  0.00  0.00    +0.000 C 
ATOM     18  C   UNL     1       9.569   6.746  25.184  0.00  0.00    +0.000 C 
ATOM     19  C   UNL     1      10.855   7.108  25.937  0.00  0.00    +0.000 C 
ENDBRANCH   1  18
BRANCH  10  20
ATOM     20  C   UNL     1       9.188   0.956  21.904  0.00  0.00    +0.000 C 
ATOM     21  O   UNL     1      10.187   0.275  21.756  0.00  0.00    +0.000 OA
BRANCH  20  22
ATOM     22  O   UNL     1       8.555   1.471  20.797  0.00  0.00    +0.000 OA
ATOM     23  H   UNL     1       7.576   1.348  20.828  0.00  0.00    +0.000 HD
ENDBRANCH  20  22
ENDBRANCH  10  20
BRANCH   3  24
ATOM     24  O   UNL     1      10.804   2.854  22.459  0.00  0.00    +0.000 OA
ATOM     25  H   UNL     1      11.344   2.244  23.004  0.00  0.00    +0.000 HD
ENDBRANCH   3  24
BRANCH   2  26
ATOM     26  O   UNL     1      11.247   5.297  23.147  0.00  0.00    +0.000 OA
ATOM     27  H   UNL     1      11.602   5.999  23.713  0.00  0.00    +0.000 HD
ENDBRANCH   2  26
TORSDOF 5
ENDMDL
MODEL 8
REMARK VINA RESULT:      -6.4      3.063      6.849
REMARK  Name = 
REMARK  9 active torsions:
REMARK  status: ('A' for Active; 'I' for Inactive)
REMARK    1  A    between atoms: C_1  and  C_2
REMARK    2  A    between atoms: C_2  and  C_3
REMARK    3  A    between atoms: C_2  and  C_4
REMARK    4  A    between atoms: C_5  and  O_24
REMARK    5  A    between atoms: C_6  and  O_23
REMARK    6  A    between atoms: C_13  and  C_20
REMARK    7  A    between atoms: C_17  and  C_18
REMARK    8  A    between atoms: C_17  and  C_19
REMARK    9  A    between atoms: C_20  and  O_22
REMARK                            x       y       z     vdW  Elec       q    Type
REMARK                         _______ _______ _______ _____ _____    ______ ____
ROOT
ATOM      1  C   UNL     1       8.676   4.268  24.123  0.00  0.00    +0.000 A 
ATOM      2  C   UNL     1       8.243   3.763  25.343  0.00  0.00    +0.000 A 
ATOM      3  C   UNL     1       8.116   2.371  25.548  0.00  0.00    +0.000 A 
ATOM      4  C   UNL     1       8.489   1.397  24.600  0.00  0.00    +0.000 A 
ATOM      5  C   UNL     1       8.652   1.933  23.312  0.00  0.00    +0.000 A 
ATOM      6  C   UNL     1       8.810   3.325  23.098  0.00  0.00    +0.000 A 
ATOM      7  C   UNL     1       8.332   1.138  22.073  0.00  0.00    +0.000 C 
ATOM      8  C   UNL     1       8.082  -0.321  22.338  0.00  0.00    +0.000 C 
ATOM      9  C   UNL     1       7.359  -0.604  23.718  0.00  0.00    +0.000 C 
ATOM     10  C   UNL     1       8.394  -0.159  24.834  0.00  0.00    +0.000 C 
ATOM     11  C   UNL     1       9.662  -1.138  24.626  0.00  0.00    +0.000 C 
ATOM     12  C   UNL     1       9.312  -2.545  24.040  0.00  0.00    +0.000 C 
ATOM     13  C   UNL     1       7.904  -3.003  24.418  0.00  0.00    +0.000 C 
ATOM     14  C   UNL     1       6.828  -2.083  23.802  0.00  0.00    +0.000 C 
ATOM     15  C   UNL     1       5.516  -2.119  24.627  0.00  0.00    +0.000 C 
ATOM     16  C   UNL     1       6.420  -2.677  22.425  0.00  0.00    +0.000 C 
ENDROOT
BRANCH   1  18
ATOM     17  C   UNL     1      10.537   5.816  23.684  0.00  0.00    +0.000 C 
ATOM     18  C   UNL     1       9.025   5.724  23.890  0.00  0.00    +0.000 C 
ATOM     19  C   UNL     1       8.299   6.396  22.717  0.00  0.00    +0.000 C 
ENDBRANCH   1  18
BRANCH  10  20
ATOM     20  C   UNL     1       8.200  -0.411  26.362  0.00  0.00    +0.000 C 
ATOM     21  O   UNL     1       7.168  -0.727  26.927  0.00  0.00    +0.000 OA
BRANCH  20  22
ATOM     22  O   UNL     1       9.377  -0.400  27.071  0.00  0.00    +0.000 OA
ATOM     23  H   UNL     1      10.160  -0.197  26.504  0.00  0.00    +0.000 HD
ENDBRANCH  20  22
ENDBRANCH  10  20
BRANCH   3  24
ATOM     24  O   UNL     1       7.476   2.014  26.708  0.00  0.00    +0.000 OA
ATOM     25  H   UNL     1       6.518   2.013  26.501  0.00  0.00    +0.000 HD
ENDBRANCH   3  24
BRANCH   2  26
ATOM     26  O   UNL     1       7.879   4.541  26.411  0.00  0.00    +0.000 OA
ATOM     27  H   UNL     1       7.662   3.977  27.168  0.00  0.00    +0.000 HD
ENDBRANCH   2  26
TORSDOF 5
ENDMDL
MODEL 9
REMARK VINA RESULT:      -6.3      2.903      6.989
REMARK  Name = 
REMARK  9 active torsions:
REMARK  status: ('A' for Active; 'I' for Inactive)
REMARK    1  A    between atoms: C_1  and  C_2
REMARK    2  A    between atoms: C_2  and  C_3
REMARK    3  A    between atoms: C_2  and  C_4
REMARK    4  A    between atoms: C_5  and  O_24
REMARK    5  A    between atoms: C_6  and  O_23
REMARK    6  A    between atoms: C_13  and  C_20
REMARK    7  A    between atoms: C_17  and  C_18
REMARK    8  A    between atoms: C_17  and  C_19
REMARK    9  A    between atoms: C_20  and  O_22
REMARK                            x       y       z     vdW  Elec       q    Type
REMARK                         _______ _______ _______ _____ _____    ______ ____
ROOT
ATOM      1  C   UNL     1      10.259   4.165  23.656  0.00  0.00    +0.000 A 
ATOM      2  C   UNL     1       8.871   4.170  23.683  0.00  0.00    +0.000 A 
ATOM      3  C   UNL     1       8.148   3.018  24.064  0.00  0.00    +0.000 A 
ATOM      4  C   UNL     1       8.747   1.827  24.522  0.00  0.00    +0.000 A 
ATOM      5  C   UNL     1      10.118   1.764  24.222  0.00  0.00    +0.000 A 
ATOM      6  C   UNL     1      10.858   2.919  23.868  0.00  0.00    +0.000 A 
ATOM      7  C   UNL     1      10.807   0.458  23.922  0.00  0.00    +0.000 C 
ATOM      8  C   UNL     1       9.967  -0.752  24.224  0.00  0.00    +0.000 C 
ATOM      9  C   UNL     1       8.423  -0.543  23.946  0.00  0.00    +0.000 C 
ATOM     10  C   UNL     1       7.951   0.551  24.992  0.00  0.00    +0.000 C 
ATOM     11  C   UNL     1       8.199  -0.133  26.435  0.00  0.00    +0.000 C 
ATOM     12  C   UNL     1       8.087  -1.693  26.445  0.00  0.00    +0.000 C 
ATOM     13  C   UNL     1       7.128  -2.220  25.379  0.00  0.00    +0.000 C 
ATOM     14  C   UNL     1       7.641  -1.909  23.957  0.00  0.00    +0.000 C 
ATOM     15  C   UNL     1       6.476  -1.851  22.936  0.00  0.00    +0.000 C 
ATOM     16  C   UNL     1       8.494  -3.119  23.480  0.00  0.00    +0.000 C 
ENDROOT
BRANCH   1  18
ATOM     17  C   UNL     1      10.940   6.292  24.690  0.00  0.00    +0.000 C 
ATOM     18  C   UNL     1      11.102   5.408  23.452  0.00  0.00    +0.000 C 
ATOM     19  C   UNL     1      12.592   5.157  23.185  0.00  0.00    +0.000 C 
ENDBRANCH   1  18
BRANCH  10  20
ATOM     20  C   UNL     1       6.463   0.961  25.223  0.00  0.00    +0.000 C 
ATOM     21  O   UNL     1       5.525   0.768  24.470  0.00  0.00    +0.000 OA
BRANCH  20  22
ATOM     22  O   UNL     1       6.223   1.462  26.480  0.00  0.00    +0.000 OA
ATOM     23  H   UNL     1       5.455   1.026  26.922  0.00  0.00    +0.000 HD
ENDBRANCH  20  22
ENDBRANCH  10  20
BRANCH   3  24
ATOM     24  O   UNL     1       6.796   3.082  23.839  0.00  0.00    +0.000 OA
ATOM     25  H   UNL     1       6.463   3.818  24.394  0.00  0.00    +0.000 HD
ENDBRANCH   3  24
BRANCH   2  26
ATOM     26  O   UNL     1       8.099   5.244  23.322  0.00  0.00    +0.000 OA
ATOM     27  H   UNL     1       8.265   5.984  23.925  0.00  0.00    +0.000 HD
ENDBRANCH   2  26
TORSDOF 5
ENDMDL
