REMARK  Name = 
REMARK  10 active torsions:
REMARK  status: ('A' for Active; 'I' for Inactive)
REMARK    1  A    between atoms: C_1  and  C_2
REMARK    2  A    between atoms: C_2  and  C_33
REMARK    3  A    between atoms: C_5  and  C_30
REMARK    4  A    between atoms: C_8  and  C_29
REMARK    5  A    between atoms: C_13  and  C_26
REMARK    6  A    between atoms: C_17  and  C_25
REMARK    7  A    between atoms: C_20  and  O_24
REMARK    8  A    between atoms: C_21  and  C_22
REMARK    9  A    between atoms: C_21  and  C_23
REMARK   10  A    between atoms: C_30  and  O_32
REMARK                            x       y       z     vdW  Elec       q    Type
REMARK                         _______ _______ _______ _____ _____    ______ ____
ROOT
ATOM      1  C   UNL     1       4.499  -3.583   4.953  0.00  0.00    +0.000 C 
ATOM      2  C   UNL     1       5.553  -4.191   4.007  0.00  0.00    +0.000 C 
ATOM      3  C   UNL     1       5.422  -5.729   4.062  0.00  0.00    +0.000 C 
ATOM      4  C   UNL     1       6.316  -6.462   3.050  0.00  0.00    +0.000 C 
ATOM      5  C   UNL     1       5.926  -6.049   1.607  0.00  0.00    +0.000 C 
ATOM      6  C   UNL     1       6.787  -6.737   0.541  0.00  0.00    +0.000 C 
ATOM      7  C   UNL     1       6.360  -6.211  -0.853  0.00  0.00    +0.000 C 
ATOM      8  C   UNL     1       6.793  -4.745  -1.042  0.00  0.00    +0.000 C 
ATOM      9  C   UNL     1       6.486  -3.820   0.194  0.00  0.00    +0.000 C 
ATOM     10  C   UNL     1       6.410  -2.455   0.035  0.00  0.00    +0.000 C 
ATOM     11  C   UNL     1       6.493  -1.685  -1.293  0.00  0.00    +0.000 C 
ATOM     12  C   UNL     1       6.943  -2.675  -2.369  0.00  0.00    +0.000 C 
ATOM     13  C   UNL     1       6.046  -3.967  -2.244  0.00  0.00    +0.000 C 
ATOM     14  C   UNL     1       5.858  -4.637  -3.608  0.00  0.00    +0.000 C 
ATOM     15  C   UNL     1       5.627  -3.631  -4.764  0.00  0.00    +0.000 C 
ATOM     16  C   UNL     1       6.489  -2.314  -4.846  0.00  0.00    +0.000 C 
ATOM     17  C   UNL     1       7.581  -2.312  -3.759  0.00  0.00    +0.000 C 
ATOM     18  C   UNL     1       8.670  -3.374  -4.175  0.00  0.00    +0.000 C 
ATOM     19  C   UNL     1       9.206  -3.256  -5.601  0.00  0.00    +0.000 C 
ATOM     20  C   UNL     1       8.095  -3.181  -6.631  0.00  0.00    +0.000 C 
ATOM     21  C   UNL     1       7.035  -2.088  -6.320  0.00  0.00    +0.000 C 
ATOM     22  C   UNL     1       5.865  -2.154  -7.334  0.00  0.00    +0.000 C 
ATOM     23  C   UNL     1       7.648  -0.679  -6.534  0.00  0.00    +0.000 C 
ATOM     24  C   UNL     1       8.355  -0.985  -3.550  0.00  0.00    +0.000 C 
ATOM     25  C   UNL     1       4.521  -3.696  -1.825  0.00  0.00    +0.000 C 
ATOM     26  C   UNL     1       6.229  -4.494   1.545  0.00  0.00    +0.000 C 
ATOM     27  C   UNL     1       5.320  -3.720   2.553  0.00  0.00    +0.000 C 
ATOM     28  C   UNL     1       8.361  -4.916  -1.255  0.00  0.00    +0.000 C 
ATOM     29  C   UNL     1       6.940  -3.710   4.496  0.00  0.00    +0.000 C 
ENDROOT
BRANCH  20  30
ATOM     30  O   UNL     1       8.639  -3.019  -7.939  0.00  0.00    +0.000 OA
ATOM     31  H   UNL     1       9.250  -2.268  -7.912  0.00  0.00    +0.000 HD
ENDBRANCH  20  30
BRANCH   5  32
ATOM     32  C   UNL     1       4.527  -6.698   1.400  0.00  0.00    +0.000 C 
ATOM     33  O   UNL     1       4.297  -7.880   1.612  0.00  0.00    +0.000 OA
BRANCH  32  34
ATOM     34  O   UNL     1       3.573  -5.897   0.900  0.00  0.00    +0.000 OA
ATOM     35  H   UNL     1       3.880  -5.006   0.655  0.00  0.00    +0.000 HD
ENDBRANCH  32  34
ENDBRANCH   5  32
TORSDOF 3
