REMARK  Name = 
REMARK  0 active torsions:
REMARK  status: ('A' for Active; 'I' for Inactive)
REMARK                            x       y       z     vdW  Elec       q    Type
REMARK                         _______ _______ _______ _____ _____    ______ ____
ROOT
ATOM      1  C   UNL     1      -0.266  -2.023  -0.001  0.00  0.00    +0.000 A 
ATOM      2  C   UNL     1       1.131  -1.925  -0.001  0.00  0.00    +0.000 A 
ATOM      3  C   UNL     1       1.669  -0.641  -0.001  0.00  0.00    +0.000 A 
ATOM      4  C   UNL     1       0.913   0.526  -0.001  0.00  0.00    +0.000 A 
ATOM      5  C   UNL     1       1.856   1.591  -0.001  0.00  0.00    +0.000 A 
ATOM      6  C   UNL     1       3.103   1.008  -0.000  0.00  0.00    +0.000 A 
ATOM      7  O   UNL     1       2.998  -0.347  -0.001  0.00  0.00    +0.000 OA
ATOM      8  C   UNL     1      -0.488   0.397  -0.002  0.00  0.00    +0.000 A 
ATOM      9  C   UNL     1      -1.073  -0.879  -0.001  0.00  0.00    +0.000 A 
ATOM     10  C   UNL     1      -2.524  -0.994  -0.000  0.00  0.00    +0.000 A 
ATOM     11  C   UNL     1      -3.278   0.108   0.000  0.00  0.00    +0.000 A 
ATOM     12  C   UNL     1      -2.698   1.462  -0.001  0.00  0.00    +0.000 A 
ATOM     13  O   UNL     1      -3.422   2.450  -0.000  0.00  0.00    +0.000 OA
ATOM     14  O   UNL     1      -1.312   1.551  -0.002  0.00  0.00    +0.000 OA
ENDROOT
TORSDOF 0
