REMARK  Name = 
REMARK  11 active torsions:
REMARK  status: ('A' for Active; 'I' for Inactive)
REMARK    1  A    between atoms: C_2  and  O_41
REMARK    2  A    between atoms: C_3  and  C_13
REMARK    3  A    between atoms: C_7  and  O_12
REMARK    4  A    between atoms: C_9  and  O_11
REMARK    5  A    between atoms: C_17  and  O_35
REMARK    6  A    between atoms: C_18  and  O_34
REMARK    7  A    between atoms: C_20  and  C_21
REMARK    8  A    between atoms: C_22  and  O_33
REMARK    9  A    between atoms: C_25  and  O_32
REMARK   10  A    between atoms: C_27  and  O_31
REMARK   11  A    between atoms: C_38  and  O_40
REMARK                            x       y       z     vdW  Elec       q    Type
REMARK                         _______ _______ _______ _____ _____    ______ ____
ROOT
ATOM      1  C   UNL     1      -3.973  -0.590  -0.079  0.00  0.00    +0.000 A 
ATOM      2  C   UNL     1      -4.856  -1.078   0.817  0.00  0.00    +0.000 A 
ATOM      3  C   UNL     1      -6.139  -1.722   0.414  0.00  0.00    +0.000 A 
ATOM      4  C   UNL     1      -7.105  -1.085  -0.409  0.00  0.00    +0.000 A 
ATOM      5  C   UNL     1      -8.355  -1.690  -0.620  0.00  0.00    +0.000 A 
ATOM      6  C   UNL     1      -8.591  -2.972  -0.140  0.00  0.00    +0.000 A 
ATOM      7  C   UNL     1      -7.607  -3.668   0.543  0.00  0.00    +0.000 A 
ATOM      8  C   UNL     1      -6.367  -3.059   0.822  0.00  0.00    +0.000 A 
ATOM      9  C   UNL     1      -6.816   0.171  -1.153  0.00  0.00    +0.000 A 
ATOM     10  O   UNL     1      -7.722   0.961  -1.414  0.00  0.00    +0.000 OA
ATOM     11  C   UNL     1      -5.406   0.507  -1.573  0.00  0.00    +0.000 A 
ATOM     12  C   UNL     1      -4.456  -0.436  -1.464  0.00  0.00    +0.000 A 
ENDROOT
BRANCH   1  15
ATOM     13  C   UNL     1      -0.130  -0.747  -0.036  0.00  0.00    +0.000 C 
ATOM     14  C   UNL     1      -1.557  -1.224  -0.258  0.00  0.00    +0.000 C 
ATOM     15  C   UNL     1      -2.546  -0.131   0.216  0.00  0.00    +0.000 C 
ATOM     16  O   UNL     1      -2.383   0.128   1.628  0.00  0.00    +0.000 OA
ATOM     17  C   UNL     1      -1.086   0.301   2.052  0.00  0.00    +0.000 A 
ATOM     18  C   UNL     1      -0.915   0.881   3.313  0.00  0.00    +0.000 A 
ATOM     19  C   UNL     1       0.371   1.070   3.817  0.00  0.00    +0.000 A 
ATOM     20  C   UNL     1       1.489   0.682   3.092  0.00  0.00    +0.000 A 
ATOM     21  C   UNL     1       1.313   0.094   1.845  0.00  0.00    +0.000 A 
ATOM     22  C   UNL     1       0.031  -0.113   1.315  0.00  0.00    +0.000 A 
BRANCH  19  23
ATOM     23  O   UNL     1       0.589   1.642   5.037  0.00  0.00    +0.000 OA
ATOM     24  H   UNL     1      -0.267   1.873   5.436  0.00  0.00    +0.000 HD
ENDBRANCH  19  23
BRANCH  21  25
ATOM     25  O   UNL     1       2.396  -0.303   1.112  0.00  0.00    +0.000 OA
ATOM     26  H   UNL     1       3.203  -0.130   1.627  0.00  0.00    +0.000 HD
ENDBRANCH  21  25
BRANCH  14  27
ATOM     27  O   UNL     1      -1.714  -1.575  -1.637  0.00  0.00    +0.000 OA
ATOM     28  H   UNL     1      -1.798  -0.749  -2.148  0.00  0.00    +0.000 HD
ENDBRANCH  14  27
ENDBRANCH   1  15
BRANCH   8  29
ATOM     29  C   UNL     1      -5.261  -3.903   1.448  0.00  0.00    +0.000 C 
ATOM     30  C   UNL     1      -4.829  -5.062   0.526  0.00  0.00    +0.000 C 
ATOM     31  C   UNL     1      -3.659  -5.777   1.199  0.00  0.00    +0.000 C 
ATOM     32  C   UNL     1      -3.933  -6.030   2.654  0.00  0.00    +0.000 A 
ATOM     33  C   UNL     1      -3.203  -6.966   3.398  0.00  0.00    +0.000 A 
ATOM     34  C   UNL     1      -3.480  -7.195   4.745  0.00  0.00    +0.000 A 
ATOM     35  C   UNL     1      -4.485  -6.469   5.370  0.00  0.00    +0.000 A 
ATOM     36  C   UNL     1      -5.215  -5.524   4.665  0.00  0.00    +0.000 A 
ATOM     37  C   UNL     1      -4.935  -5.301   3.317  0.00  0.00    +0.000 A 
ATOM     38  O   UNL     1      -5.732  -4.366   2.714  0.00  0.00    +0.000 OA
BRANCH  35  39
ATOM     39  O   UNL     1      -4.785  -6.653   6.687  0.00  0.00    +0.000 OA
ATOM     40  H   UNL     1      -4.181  -7.321   7.050  0.00  0.00    +0.000 HD
ENDBRANCH  35  39
BRANCH  33  41
ATOM     41  O   UNL     1      -2.188  -7.715   2.869  0.00  0.00    +0.000 OA
ATOM     42  H   UNL     1      -2.028  -7.463   1.947  0.00  0.00    +0.000 HD
ENDBRANCH  33  41
BRANCH  30  43
ATOM     43  O   UNL     1      -4.425  -4.629  -0.777  0.00  0.00    +0.000 OA
ATOM     44  H   UNL     1      -3.829  -3.863  -0.693  0.00  0.00    +0.000 HD
ENDBRANCH  30  43
ENDBRANCH   8  29
BRANCH   6  45
ATOM     45  O   UNL     1      -9.787  -3.587  -0.379  0.00  0.00    +0.000 OA
ATOM     46  H   UNL     1     -10.315  -2.932  -0.878  0.00  0.00    +0.000 HD
ENDBRANCH   6  45
BRANCH   5  47
ATOM     47  O   UNL     1      -9.388  -1.096  -1.302  0.00  0.00    +0.000 OA
ATOM     48  H   UNL     1      -9.153  -0.151  -1.446  0.00  0.00    +0.000 HD
ENDBRANCH   5  47
BRANCH  11  49
ATOM     49  O   UNL     1      -5.064   1.847  -1.502  0.00  0.00    +0.000 OA
ATOM     50  H   UNL     1      -5.914   2.325  -1.433  0.00  0.00    +0.000 HD
ENDBRANCH  11  49
TORSDOF 11
