REMARK  Name = 
REMARK  1 active torsions:
REMARK  status: ('A' for Active; 'I' for Inactive)
REMARK    1  A    between atoms: C_4  and  C_7
REMARK                            x       y       z     vdW  Elec       q    Type
REMARK                         _______ _______ _______ _____ _____    ______ ____
ROOT
ATOM      1  C   UNL     1      -2.922   0.555  -0.318  0.00  0.00    +0.000 A 
ATOM      2  O   UNL     1      -3.776  -0.278   0.111  0.00  0.00    +0.000 OA
ATOM      3  C   UNL     1      -4.984  -0.200  -0.251  0.00  0.00    +0.000 A 
ATOM      4  C   UNL     1      -5.864  -1.179   0.217  0.00  0.00    +0.000 A 
ATOM      5  C   UNL     1      -7.212  -1.169  -0.169  0.00  0.00    +0.000 A 
ATOM      6  C   UNL     1      -7.679  -0.185  -1.041  0.00  0.00    +0.000 A 
ATOM      7  C   UNL     1      -6.818   0.807  -1.508  0.00  0.00    +0.000 A 
ATOM      8  C   UNL     1      -5.476   0.816  -1.096  0.00  0.00    +0.000 A 
ATOM      9  C   UNL     1      -4.609   1.810  -1.488  0.00  0.00    +0.000 A 
ATOM     10  C   UNL     1      -3.308   1.678  -1.062  0.00  0.00    +0.000 A 
ENDROOT
BRANCH   1  14
ATOM     11  C   UNL     1       1.188  -0.585   0.339  0.00  0.00    +0.000 A 
ATOM     12  C   UNL     1       0.882   0.395  -0.595  0.00  0.00    +0.000 A 
ATOM     13  C   UNL     1      -0.446   0.789  -0.782  0.00  0.00    +0.000 A 
ATOM     14  C   UNL     1      -1.506   0.213  -0.047  0.00  0.00    +0.000 A 
ATOM     15  C   UNL     1      -1.162  -0.762   0.909  0.00  0.00    +0.000 A 
ATOM     16  C   UNL     1       0.170  -1.157   1.098  0.00  0.00    +0.000 A 
ENDBRANCH   1  14
TORSDOF 1
