REMARK  Name = 
REMARK  5 active torsions:
REMARK  status: ('A' for Active; 'I' for Inactive)
REMARK    1  A    between atoms: C_1  and  C_2
REMARK    2  A    between atoms: C_5  and  C_8
REMARK    3  A    between atoms: C_8  and  C_9
REMARK    4  A    between atoms: C_8  and  C_10
REMARK    5  A    between atoms: C_8  and  O_11
REMARK                            x       y       z     vdW  Elec       q    Type
REMARK                         _______ _______ _______ _____ _____    ______ ____
ROOT
ATOM      1  C   UNL     1       2.600   0.076   0.111  0.00  0.00    +0.000 C 
ATOM      2  C   UNL     1       1.099   0.069   0.062  0.00  0.00    +0.000 C 
ATOM      3  C   UNL     1       0.380   1.195  -0.055  0.00  0.00    +0.000 C 
ATOM      4  C   UNL     1      -1.120   1.235  -0.096  0.00  0.00    +0.000 C 
ATOM      5  C   UNL     1      -1.815  -0.093   0.296  0.00  0.00    +0.000 C 
ATOM      6  C   UNL     1      -1.026  -1.273  -0.307  0.00  0.00    +0.000 C 
ATOM      7  C   UNL     1       0.439  -1.281   0.142  0.00  0.00    +0.000 C 
ENDROOT
BRANCH   5   8
ATOM      8  C   UNL     1      -3.328  -0.096  -0.096  0.00  0.00    +0.000 C 
ATOM      9  C   UNL     1      -4.033  -1.408   0.279  0.00  0.00    +0.000 C 
ATOM     10  C   UNL     1      -4.088   1.060   0.570  0.00  0.00    +0.000 C 
BRANCH   8  11
ATOM     11  O   UNL     1      -3.470   0.085  -1.508  0.00  0.00    +0.000 OA
ATOM     12  H   UNL     1      -3.133  -0.710  -1.954  0.00  0.00    +0.000 HD
ENDBRANCH   8  11
ENDBRANCH   5   8
TORSDOF 2
