REMARK  Name = 
REMARK  3 active torsions:
REMARK  status: ('A' for Active; 'I' for Inactive)
REMARK    1  A    between atoms: C_1  and  C_2
REMARK    2  A    between atoms: C_5  and  C_8
REMARK    3  A    between atoms: C_8  and  C_10
REMARK                            x       y       z     vdW  Elec       q    Type
REMARK                         _______ _______ _______ _____ _____    ______ ____
ROOT
ATOM      1  C   UNL     1       2.552   0.084   0.088  0.00  0.00    +0.000 C 
ATOM      2  C   UNL     1       1.052   0.072   0.033  0.00  0.00    +0.000 C 
ATOM      3  C   UNL     1       0.326   1.194  -0.117  0.00  0.00    +0.000 C 
ATOM      4  C   UNL     1      -1.178   1.220  -0.162  0.00  0.00    +0.000 C 
ATOM      5  C   UNL     1      -1.857  -0.098   0.282  0.00  0.00    +0.000 C 
ATOM      6  C   UNL     1      -1.064  -1.298  -0.274  0.00  0.00    +0.000 C 
ATOM      7  C   UNL     1       0.405  -1.282   0.147  0.00  0.00    +0.000 C 
ENDROOT
BRANCH   5   8
ATOM      8  C   UNL     1      -3.348  -0.113  -0.075  0.00  0.00    +0.000 C 
ATOM      9  C   UNL     1      -3.934  -1.019  -0.882  0.00  0.00    +0.000 C 
ATOM     10  C   UNL     1      -4.220   0.948   0.548  0.00  0.00    +0.000 C 
ENDBRANCH   5   8
TORSDOF 1
