REMARK  Name = 
REMARK  21 active torsions:
REMARK  status: ('A' for Active; 'I' for Inactive)
REMARK    1  A    between atoms: C_2  and  C_10
REMARK    2  A    between atoms: C_4  and  O_9
REMARK    3  A    between atoms: C_5  and  O_8
REMARK    4  A    between atoms: C_6  and  O_7
REMARK    5  A    between atoms: C_10  and  O_12
REMARK    6  A    between atoms: O_12  and  C_13
REMARK    7  A    between atoms: C_13  and  C_14
REMARK    8  A    between atoms: C_15  and  O_45
REMARK    9  A    between atoms: C_16  and  O_33
REMARK   10  A    between atoms: C_17  and  O_32
REMARK   11  A    between atoms: C_18  and  O_20
REMARK   12  A    between atoms: O_20  and  C_21
REMARK   13  A    between atoms: C_21  and  C_23
REMARK   14  A    between atoms: C_25  and  O_31
REMARK   15  A    between atoms: C_26  and  O_30
REMARK   16  A    between atoms: C_27  and  O_29
REMARK   17  A    between atoms: O_33  and  C_34
REMARK   18  A    between atoms: C_34  and  C_36
REMARK   19  A    between atoms: C_38  and  O_44
REMARK   20  A    between atoms: C_39  and  O_43
REMARK   21  A    between atoms: C_40  and  O_42
REMARK                            x       y       z     vdW  Elec       q    Type
REMARK                         _______ _______ _______ _____ _____    ______ ____
ROOT
ATOM      1  C   UNL     1      -2.375  -6.134  -0.085  0.00  0.00    +0.000 C 
ATOM      2  C   UNL     1      -3.216  -4.963   0.445  0.00  0.00    +0.000 C 
ATOM      3  C   UNL     1      -3.103  -3.773  -0.530  0.00  0.00    +0.000 C 
ATOM      4  C   UNL     1      -3.548  -4.200  -1.939  0.00  0.00    +0.000 C 
ATOM      5  C   UNL     1      -2.733  -5.436  -2.389  0.00  0.00    +0.000 C 
ATOM      6  O   UNL     1      -2.808  -6.485  -1.410  0.00  0.00    +0.000 OA
ENDROOT
BRANCH   2   7
ATOM      7  O   UNL     1      -2.840  -4.663   1.788  0.00  0.00    +0.000 OA
ATOM      8  H   UNL     1      -2.232  -3.895   1.796  0.00  0.00    +0.000 HD
ENDBRANCH   2   7
BRANCH   4   9
ATOM      9  O   UNL     1      -4.962  -4.476  -1.952  0.00  0.00    +0.000 OA
ATOM     10  H   UNL     1      -5.098  -5.390  -1.642  0.00  0.00    +0.000 HD
ENDBRANCH   4   9
BRANCH   3  11
ATOM     11  O   UNL     1      -3.898  -2.653  -0.090  0.00  0.00    +0.000 OA
BRANCH  11  12
ATOM     12  C   UNL     1      -3.310  -1.885   0.856  0.00  0.00    +0.000 C 
ATOM     13  O   UNL     1      -2.227  -2.118   1.377  0.00  0.00    +0.000 OA
BRANCH  12  14
ATOM     14  C   UNL     1      -4.114  -0.682   1.165  0.00  0.00    +0.000 A 
ATOM     15  C   UNL     1      -3.693   0.116   2.244  0.00  0.00    +0.000 A 
ATOM     16  C   UNL     1      -4.319   1.333   2.474  0.00  0.00    +0.000 A 
ATOM     17  C   UNL     1      -5.364   1.745   1.655  0.00  0.00    +0.000 A 
ATOM     18  C   UNL     1      -5.800   0.938   0.611  0.00  0.00    +0.000 A 
ATOM     19  C   UNL     1      -5.190  -0.283   0.359  0.00  0.00    +0.000 A 
BRANCH  16  20
ATOM     20  O   UNL     1      -3.912   2.180   3.467  0.00  0.00    +0.000 OA
ATOM     21  H   UNL     1      -3.110   1.810   3.877  0.00  0.00    +0.000 HD
ENDBRANCH  16  20
BRANCH  17  22
ATOM     22  O   UNL     1      -5.956   2.963   1.845  0.00  0.00    +0.000 OA
ATOM     23  H   UNL     1      -5.473   3.349   2.606  0.00  0.00    +0.000 HD
ENDBRANCH  17  22
BRANCH  18  24
ATOM     24  O   UNL     1      -6.807   1.361  -0.206  0.00  0.00    +0.000 OA
ATOM     25  H   UNL     1      -7.038   2.253   0.124  0.00  0.00    +0.000 HD
ENDBRANCH  18  24
ENDBRANCH  12  14
ENDBRANCH  11  12
ENDBRANCH   3  11
BRANCH   5  26
ATOM     26  O   UNL     1      -3.285  -5.979  -3.593  0.00  0.00    +0.000 OA
BRANCH  26  27
ATOM     27  C   UNL     1      -2.972  -5.330  -4.739  0.00  0.00    +0.000 C 
ATOM     28  O   UNL     1      -2.244  -4.361  -4.831  0.00  0.00    +0.000 OA
BRANCH  27  29
ATOM     29  C   UNL     1      -3.647  -5.992  -5.893  0.00  0.00    +0.000 A 
ATOM     30  C   UNL     1      -3.377  -5.512  -7.190  0.00  0.00    +0.000 A 
ATOM     31  C   UNL     1      -3.981  -6.126  -8.283  0.00  0.00    +0.000 A 
ATOM     32  C   UNL     1      -4.838  -7.207  -8.092  0.00  0.00    +0.000 A 
ATOM     33  C   UNL     1      -5.111  -7.671  -6.815  0.00  0.00    +0.000 A 
ATOM     34  C   UNL     1      -4.517  -7.080  -5.714  0.00  0.00    +0.000 A 
BRANCH  31  35
ATOM     35  O   UNL     1      -3.761  -5.711  -9.566  0.00  0.00    +0.000 OA
ATOM     36  H   UNL     1      -3.157  -4.949  -9.544  0.00  0.00    +0.000 HD
ENDBRANCH  31  35
BRANCH  33  37
ATOM     37  O   UNL     1      -5.950  -8.727  -6.629  0.00  0.00    +0.000 OA
ATOM     38  H   UNL     1      -6.251  -8.968  -7.529  0.00  0.00    +0.000 HD
ENDBRANCH  33  37
BRANCH  32  39
ATOM     39  O   UNL     1      -5.440  -7.814  -9.163  0.00  0.00    +0.000 OA
ATOM     40  H   UNL     1      -5.117  -7.314  -9.940  0.00  0.00    +0.000 HD
ENDBRANCH  32  39
ENDBRANCH  27  29
ENDBRANCH  26  27
ENDBRANCH   5  26
BRANCH   1  41
ATOM     41  C   UNL     1      -0.852  -5.870   0.001  0.00  0.00    +0.000 C 
BRANCH  41  42
ATOM     42  O   UNL     1      -0.103  -7.015  -0.451  0.00  0.00    +0.000 OA
BRANCH  42  43
ATOM     43  C   UNL     1       0.152  -7.937   0.510  0.00  0.00    +0.000 C 
ATOM     44  O   UNL     1      -0.184  -7.850   1.680  0.00  0.00    +0.000 OA
BRANCH  43  46
ATOM     45  C   UNL     1       1.074 -10.207   0.815  0.00  0.00    +0.000 A 
ATOM     46  C   UNL     1       0.864  -9.117  -0.049  0.00  0.00    +0.000 A 
ATOM     47  C   UNL     1       1.284  -9.191  -1.389  0.00  0.00    +0.000 A 
ATOM     48  C   UNL     1       1.873 -10.368  -1.847  0.00  0.00    +0.000 A 
ATOM     49  C   UNL     1       2.078 -11.440  -0.989  0.00  0.00    +0.000 A 
ATOM     50  C   UNL     1       1.678 -11.355   0.335  0.00  0.00    +0.000 A 
BRANCH  48  51
ATOM     51  O   UNL     1       2.228 -10.532  -3.156  0.00  0.00    +0.000 OA
ATOM     52  H   UNL     1       1.436 -10.325  -3.686  0.00  0.00    +0.000 HD
ENDBRANCH  48  51
BRANCH  49  53
ATOM     53  O   UNL     1       2.640 -12.601  -1.446  0.00  0.00    +0.000 OA
ATOM     54  H   UNL     1       2.878 -12.411  -2.376  0.00  0.00    +0.000 HD
ENDBRANCH  49  53
BRANCH  50  55
ATOM     55  O   UNL     1       1.855 -12.421   1.170  0.00  0.00    +0.000 OA
ATOM     56  H   UNL     1       2.267 -13.112   0.611  0.00  0.00    +0.000 HD
ENDBRANCH  50  55
ENDBRANCH  43  46
ENDBRANCH  42  43
ENDBRANCH  41  42
ENDBRANCH   1  41
TORSDOF 21
