REMARK  Name = 
REMARK  6 active torsions:
REMARK  status: ('A' for Active; 'I' for Inactive)
REMARK    1  A    between atoms: C_1  and  C_2
REMARK    2  A    between atoms: C_2  and  C_10
REMARK    3  A    between atoms: C_3  and  C_4
REMARK    4  A    between atoms: C_4  and  C_5
REMARK    5  A    between atoms: C_5  and  C_6
REMARK    6  A    between atoms: C_6  and  C_8
REMARK                            x       y       z     vdW  Elec       q    Type
REMARK                         _______ _______ _______ _____ _____    ______ ____
ROOT
ATOM      1  C   UNL     1       2.530   2.072  -1.488  0.00  0.00    +0.000 C 
ENDROOT
BRANCH   1   4
ATOM      2  C   UNL     1       1.119  -0.110   0.088  0.00  0.00    +0.000 C 
ATOM      3  C   UNL     1       2.614   0.026  -0.011  0.00  0.00    +0.000 C 
ATOM      4  C   UNL     1       3.240   0.994  -0.711  0.00  0.00    +0.000 C 
ATOM      5  C   UNL     1       3.403  -1.012   0.741  0.00  0.00    +0.000 C 
ENDBRANCH   1   4
BRANCH   1   6
ATOM      6  C   UNL     1       3.472   3.042  -2.215  0.00  0.00    +0.000 C 
BRANCH   6   7
ATOM      7  C   UNL     1       2.688   4.110  -2.956  0.00  0.00    +0.000 C 
ATOM      8  C   UNL     1       2.310   3.928  -4.233  0.00  0.00    +0.000 C 
BRANCH   7   9
ATOM      9  C   UNL     1       2.323   5.289  -2.187  0.00  0.00    +0.000 C 
ATOM     10  C   UNL     1       2.171   6.527  -2.675  0.00  0.00    +0.000 C 
ENDBRANCH   7   9
ENDBRANCH   6   7
ENDBRANCH   1   6
TORSDOF 4
