REMARK  Name = 
REMARK  7 active torsions:
REMARK  status: ('A' for Active; 'I' for Inactive)
REMARK    1  A    between atoms: C_1  and  C_2
REMARK    2  A    between atoms: C_2  and  C_3
REMARK    3  A    between atoms: C_2  and  C_4
REMARK    4  A    between atoms: C_5  and  O_24
REMARK    5  A    between atoms: C_6  and  O_23
REMARK    6  A    between atoms: C_17  and  C_18
REMARK    7  A    between atoms: C_17  and  C_19
REMARK                            x       y       z     vdW  Elec       q    Type
REMARK                         _______ _______ _______ _____ _____    ______ ____
ROOT
ATOM      1  C   UNL     1       2.987   0.714   1.285  0.00  0.00    +0.000 A 
ATOM      2  C   UNL     1       3.811   0.255   2.344  0.00  0.00    +0.000 A 
ATOM      3  C   UNL     1       4.319   1.153   3.348  0.00  0.00    +0.000 A 
ATOM      4  C   UNL     1       4.016   2.501   3.302  0.00  0.00    +0.000 A 
ATOM      5  C   UNL     1       3.064   2.905   2.313  0.00  0.00    +0.000 A 
ATOM      6  C   UNL     1       2.595   2.054   1.324  0.00  0.00    +0.000 A 
ATOM      7  C   UNL     1       2.633   4.362   2.364  0.00  0.00    +0.000 C 
ATOM      8  C   UNL     1       2.114   4.741   3.748  0.00  0.00    +0.000 C 
ATOM      9  C   UNL     1       2.982   4.034   4.810  0.00  0.00    +0.000 C 
ATOM     10  C   UNL     1       4.409   3.759   4.143  0.00  0.00    +0.000 C 
ATOM     11  C   UNL     1       5.607   4.135   5.088  0.00  0.00    +0.000 C 
ATOM     12  C   UNL     1       5.344   4.918   6.390  0.00  0.00    +0.000 C 
ATOM     13  C   UNL     1       3.989   5.619   6.446  0.00  0.00    +0.000 C 
ATOM     14  C   UNL     1       2.880   4.593   6.260  0.00  0.00    +0.000 C 
ATOM     15  C   UNL     1       1.491   5.206   6.551  0.00  0.00    +0.000 C 
ATOM     16  C   UNL     1       3.049   3.465   7.321  0.00  0.00    +0.000 C 
ATOM     17  C   UNL     1       4.840   4.669   2.882  0.00  0.00    +0.000 C 
ATOM     18  O   UNL     1       5.987   4.768   2.448  0.00  0.00    +0.000 OA
ATOM     19  O   UNL     1       3.801   5.149   2.156  0.00  0.00    +0.000 OA
ENDROOT
BRANCH   1  21
ATOM     20  C   UNL     1       1.002  -0.114  -0.074  0.00  0.00    +0.000 C 
ATOM     21  C   UNL     1       2.532  -0.097   0.081  0.00  0.00    +0.000 C 
ATOM     22  C   UNL     1       3.166   0.450  -1.209  0.00  0.00    +0.000 C 
ENDBRANCH   1  21
BRANCH   3  23
ATOM     23  O   UNL     1       5.066   0.634   4.359  0.00  0.00    +0.000 OA
ATOM     24  H   UNL     1       5.072  -0.332   4.194  0.00  0.00    +0.000 HD
ENDBRANCH   3  23
BRANCH   2  25
ATOM     25  O   UNL     1       4.151  -1.066   2.488  0.00  0.00    +0.000 OA
ATOM     26  H   UNL     1       3.671  -1.593   1.829  0.00  0.00    +0.000 HD
ENDBRANCH   2  25
TORSDOF 3
