REMARK  Name = 
REMARK  5 active torsions:
REMARK  status: ('A' for Active; 'I' for Inactive)
REMARK    1  A    between atoms: C_1  and  O_2
REMARK    2  A    between atoms: O_2  and  C_3
REMARK    3  A    between atoms: C_6  and  C_9
REMARK    4  A    between atoms: C_14  and  O_21
REMARK    5  A    between atoms: C_16  and  O_20
REMARK                            x       y       z     vdW  Elec       q    Type
REMARK                         _______ _______ _______ _____ _____    ______ ____
ROOT
ATOM      1  C   UNL     1       4.587   3.055   4.610  0.00  0.00    +0.000 A 
ATOM      2  C   UNL     1       4.691   4.351   4.269  0.00  0.00    +0.000 A 
ATOM      3  C   UNL     1       5.266   5.287   5.214  0.00  0.00    +0.000 A 
ATOM      4  O   UNL     1       5.695   6.376   4.857  0.00  0.00    +0.000 OA
ATOM      5  C   UNL     1       5.218   4.884   6.608  0.00  0.00    +0.000 A 
ATOM      6  C   UNL     1       5.313   5.862   7.599  0.00  0.00    +0.000 A 
ATOM      7  C   UNL     1       5.040   5.529   8.912  0.00  0.00    +0.000 A 
ATOM      8  C   UNL     1       4.722   4.208   9.218  0.00  0.00    +0.000 A 
ATOM      9  C   UNL     1       4.696   3.204   8.237  0.00  0.00    +0.000 A 
ATOM     10  C   UNL     1       4.924   3.550   6.906  0.00  0.00    +0.000 A 
ATOM     11  O   UNL     1       4.799   2.588   5.911  0.00  0.00    +0.000 OA
ENDROOT
BRANCH   1  15
ATOM     12  C   UNL     1       2.988   0.615   1.448  0.00  0.00    +0.000 A 
ATOM     13  C   UNL     1       3.715   1.757   1.170  0.00  0.00    +0.000 A 
ATOM     14  C   UNL     1       4.325   2.462   2.200  0.00  0.00    +0.000 A 
ATOM     15  C   UNL     1       4.149   2.103   3.555  0.00  0.00    +0.000 A 
ATOM     16  C   UNL     1       3.500   0.897   3.819  0.00  0.00    +0.000 A 
ATOM     17  C   UNL     1       2.914   0.155   2.769  0.00  0.00    +0.000 A 
BRANCH  12  19
ATOM     18  C   UNL     1       1.982  -1.283   0.454  0.00  0.00    +0.000 C 
ATOM     19  O   UNL     1       2.380   0.073   0.354  0.00  0.00    +0.000 OA
ENDBRANCH  12  19
ENDBRANCH   1  15
BRANCH   8  20
ATOM     20  O   UNL     1       4.391   3.866  10.499  0.00  0.00    +0.000 OA
ATOM     21  H   UNL     1       4.373   4.677  11.037  0.00  0.00    +0.000 HD
ENDBRANCH   8  20
BRANCH   6  22
ATOM     22  O   UNL     1       5.611   7.170   7.324  0.00  0.00    +0.000 OA
ATOM     23  H   UNL     1       5.797   7.253   6.362  0.00  0.00    +0.000 HD
ENDBRANCH   6  22
TORSDOF 4
