REMARK  Name = 
REMARK  4 active torsions:
REMARK  status: ('A' for Active; 'I' for Inactive)
REMARK    1  A    between atoms: C_4  and  C_7
REMARK    2  A    between atoms: C_15  and  O_20
REMARK    3  A    between atoms: C_16  and  O_19
REMARK    4  A    between atoms: C_17  and  O_18
REMARK                            x       y       z     vdW  Elec       q    Type
REMARK                         _______ _______ _______ _____ _____    ______ ____
ROOT
ATOM      1  C   UNL     1      -3.369  -0.266  -0.612  0.00  0.00    +0.000 A 
ATOM      2  C   UNL     1      -3.490  -0.181   0.721  0.00  0.00    +0.000 A 
ATOM      3  C   UNL     1      -4.795  -0.483   1.277  0.00  0.00    +0.000 A 
ATOM      4  O   UNL     1      -5.265   0.116   2.224  0.00  0.00    +0.000 OA
ATOM      5  C   UNL     1      -5.503  -1.498   0.509  0.00  0.00    +0.000 A 
ATOM      6  C   UNL     1      -5.441  -1.393  -0.881  0.00  0.00    +0.000 A 
ATOM      7  O   UNL     1      -4.430  -0.642  -1.471  0.00  0.00    +0.000 OA
ATOM      8  C   UNL     1      -6.301  -2.179  -1.655  0.00  0.00    +0.000 A 
ATOM      9  C   UNL     1      -7.031  -3.180  -1.014  0.00  0.00    +0.000 A 
ATOM     10  C   UNL     1      -6.828  -3.456   0.340  0.00  0.00    +0.000 A 
ATOM     11  C   UNL     1      -6.065  -2.596   1.112  0.00  0.00    +0.000 A 
ENDROOT
BRANCH   1  15
ATOM     12  C   UNL     1       0.558   0.593  -2.109  0.00  0.00    +0.000 A 
ATOM     13  C   UNL     1      -0.195  -0.426  -2.697  0.00  0.00    +0.000 A 
ATOM     14  C   UNL     1      -1.497  -0.702  -2.245  0.00  0.00    +0.000 A 
ATOM     15  C   UNL     1      -2.053   0.045  -1.202  0.00  0.00    +0.000 A 
ATOM     16  C   UNL     1      -1.275   1.076  -0.635  0.00  0.00    +0.000 A 
ATOM     17  C   UNL     1       0.019   1.343  -1.074  0.00  0.00    +0.000 A 
ENDBRANCH   1  15
BRANCH  11  18
ATOM     18  O   UNL     1      -5.751  -2.931   2.397  0.00  0.00    +0.000 OA
ATOM     19  H   UNL     1      -5.979  -3.872   2.490  0.00  0.00    +0.000 HD
ENDBRANCH  11  18
BRANCH  10  20
ATOM     20  O   UNL     1      -7.340  -4.578   0.927  0.00  0.00    +0.000 OA
ATOM     21  H   UNL     1      -7.838  -5.033   0.208  0.00  0.00    +0.000 HD
ENDBRANCH  10  20
BRANCH   9  22
ATOM     22  O   UNL     1      -7.921  -3.975  -1.682  0.00  0.00    +0.000 OA
ATOM     23  H   UNL     1      -8.407  -3.404  -2.302  0.00  0.00    +0.000 HD
ENDBRANCH   9  22
TORSDOF 4
