REMARK  Name = 
REMARK  10 active torsions:
REMARK  status: ('A' for Active; 'I' for Inactive)
REMARK    1  A    between atoms: C_1  and  O_2
REMARK    2  A    between atoms: O_2  and  C_3
REMARK    3  A    between atoms: C_5  and  C_23
REMARK    4  A    between atoms: C_7  and  O_21
REMARK    5  A    between atoms: C_8  and  O_9
REMARK    6  A    between atoms: O_9  and  C_10
REMARK    7  A    between atoms: C_14  and  C_16
REMARK    8  A    between atoms: O_21  and  C_22
REMARK    9  A    between atoms: C_24  and  C_25
REMARK   10  A    between atoms: C_25  and  O_26
REMARK                            x       y       z     vdW  Elec       q    Type
REMARK                         _______ _______ _______ _____ _____    ______ ____
ROOT
ATOM      1  C   UNL     1       3.210  -1.260  -0.278  0.00  0.00    +0.000 A 
ATOM      2  C   UNL     1       4.282  -1.584   0.537  0.00  0.00    +0.000 A 
ATOM      3  C   UNL     1       5.092  -2.627   0.030  0.00  0.00    +0.000 A 
ATOM      4  C   UNL     1       4.719  -3.476  -0.911  0.00  0.00    +0.000 A 
ATOM      5  C   UNL     1       3.612  -3.131  -1.636  0.00  0.00    +0.000 A 
ATOM      6  C   UNL     1       2.843  -2.049  -1.281  0.00  0.00    +0.000 A 
ENDROOT
BRANCH   1   8
ATOM      7  C   UNL     1       2.416   0.440   1.313  0.00  0.00    +0.000 C 
ATOM      8  O   UNL     1       2.500  -0.059  -0.014  0.00  0.00    +0.000 OA
ENDBRANCH   1   8
BRANCH   5   9
ATOM      9  O   UNL     1       3.251  -3.904  -2.771  0.00  0.00    +0.000 OA
ATOM     10  C   UNL     1       4.254  -4.564  -3.529  0.00  0.00    +0.000 C 
ENDBRANCH   5   9
BRANCH   3  11
ATOM     11  C   UNL     1       6.490  -2.782   0.608  0.00  0.00    +0.000 C 
ATOM     12  C   UNL     1       6.692  -3.580   1.691  0.00  0.00    +0.000 C 
BRANCH  12  13
ATOM     13  C   UNL     1       8.089  -3.736   2.270  0.00  0.00    +0.000 C 
BRANCH  13  14
ATOM     14  O   UNL     1       8.095  -3.292   3.619  0.00  0.00    +0.000 OA
ATOM     15  H   UNL     1       7.833  -2.359   3.653  0.00  0.00    +0.000 HD
ENDBRANCH  13  14
ENDBRANCH  12  13
ENDBRANCH   3  11
BRANCH   6  16
ATOM     16  O   UNL     1       1.647  -1.772  -1.993  0.00  0.00    +0.000 OA
BRANCH  16  17
ATOM     17  C   UNL     1       1.537  -2.128  -3.363  0.00  0.00    +0.000 C 
ATOM     18  C   UNL     1       1.537  -2.128  -3.363  0.00  0.00    +0.000 C 
ATOM     19  C   UNL     1       1.537  -2.128  -3.363  0.00  0.00    +0.000 C 
ATOM     20  C   UNL     1       1.537  -2.128  -3.363  0.00  0.00    +0.000 C 
ATOM     21  C   UNL     1       1.537  -2.128  -3.363  0.00  0.00    +0.000 C 
ATOM     22  O   UNL     1       1.537  -2.128  -3.363  0.00  0.00    +0.000 OA
ATOM     23  O   UNL     1       1.537  -2.128  -3.363  0.00  0.00    +0.000 OA
ATOM     24  O   UNL     1       1.537  -2.128  -3.363  0.00  0.00    +0.000 OA
ATOM     25  O   UNL     1       1.537  -2.128  -3.363  0.00  0.00    +0.000 OA
BRANCH  21  26
ATOM     26  C   UNL     1         nan     nan     nan  0.00  0.00    +0.000 C 
ATOM     27  O   UNL     1         nan     nan     nan  0.00  0.00    +0.000 OA
ENDBRANCH  21  26
ENDBRANCH  16  17
ENDBRANCH   6  16
TORSDOF 8
