REMARK  Name = 
REMARK  10 active torsions:
REMARK  status: ('A' for Active; 'I' for Inactive)
REMARK    1  A    between atoms: C_1  and  C_2
REMARK    2  A    between atoms: C_5  and  C_31
REMARK    3  A    between atoms: C_8  and  C_30
REMARK    4  A    between atoms: C_13  and  C_26
REMARK    5  A    between atoms: C_17  and  C_25
REMARK    6  A    between atoms: C_20  and  O_24
REMARK    7  A    between atoms: C_21  and  C_22
REMARK    8  A    between atoms: C_21  and  C_23
REMARK    9  A    between atoms: C_28  and  C_29
REMARK   10  A    between atoms: C_31  and  O_33
REMARK                            x       y       z     vdW  Elec       q    Type
REMARK                         _______ _______ _______ _____ _____    ______ ____
ROOT
ATOM      1  C   UNL     1       4.460  -3.572   4.956  0.00  0.00    +0.000 C 
ATOM      2  C   UNL     1       5.390  -4.226   3.934  0.00  0.00    +0.000 C 
ATOM      3  C   UNL     1       5.238  -5.750   3.965  0.00  0.00    +0.000 C 
ATOM      4  C   UNL     1       6.266  -6.420   3.039  0.00  0.00    +0.000 C 
ATOM      5  C   UNL     1       5.940  -6.045   1.569  0.00  0.00    +0.000 C 
ATOM      6  C   UNL     1       6.891  -6.691   0.553  0.00  0.00    +0.000 C 
ATOM      7  C   UNL     1       6.481  -6.225  -0.869  0.00  0.00    +0.000 C 
ATOM      8  C   UNL     1       6.878  -4.757  -1.090  0.00  0.00    +0.000 C 
ATOM      9  C   UNL     1       6.516  -3.818   0.130  0.00  0.00    +0.000 C 
ATOM     10  C   UNL     1       6.420  -2.464  -0.059  0.00  0.00    +0.000 C 
ATOM     11  C   UNL     1       6.544  -1.714  -1.401  0.00  0.00    +0.000 C 
ATOM     12  C   UNL     1       7.009  -2.710  -2.470  0.00  0.00    +0.000 C 
ATOM     13  C   UNL     1       6.138  -4.021  -2.333  0.00  0.00    +0.000 C 
ATOM     14  C   UNL     1       5.981  -4.707  -3.694  0.00  0.00    +0.000 C 
ATOM     15  C   UNL     1       5.660  -3.696  -4.829  0.00  0.00    +0.000 C 
ATOM     16  C   UNL     1       6.503  -2.369  -4.948  0.00  0.00    +0.000 C 
ATOM     17  C   UNL     1       7.614  -2.339  -3.877  0.00  0.00    +0.000 C 
ATOM     18  C   UNL     1       8.727  -3.374  -4.301  0.00  0.00    +0.000 C 
ATOM     19  C   UNL     1       9.218  -3.281  -5.742  0.00  0.00    +0.000 C 
ATOM     20  C   UNL     1       8.073  -3.247  -6.758  0.00  0.00    +0.000 C 
ATOM     21  C   UNL     1       7.020  -2.150  -6.434  0.00  0.00    +0.000 C 
ATOM     22  C   UNL     1       5.834  -2.231  -7.430  0.00  0.00    +0.000 C 
ATOM     23  C   UNL     1       7.619  -0.739  -6.675  0.00  0.00    +0.000 C 
ATOM     24  C   UNL     1       8.356  -0.991  -3.693  0.00  0.00    +0.000 C 
ATOM     25  C   UNL     1       4.607  -3.768  -1.955  0.00  0.00    +0.000 C 
ATOM     26  C   UNL     1       6.173  -4.472   1.497  0.00  0.00    +0.000 C 
ATOM     27  C   UNL     1       5.263  -3.649   2.495  0.00  0.00    +0.000 C 
ATOM     28  C   UNL     1       3.809  -3.412   2.057  0.00  0.00    +0.000 C 
ATOM     29  C   UNL     1       8.451  -4.897  -1.292  0.00  0.00    +0.000 C 
ENDROOT
BRANCH  20  30
ATOM     30  O   UNL     1       8.608  -3.098  -8.070  0.00  0.00    +0.000 OA
ATOM     31  H   UNL     1       9.205  -2.329  -8.072  0.00  0.00    +0.000 HD
ENDBRANCH  20  30
BRANCH   5  32
ATOM     32  C   UNL     1       4.627  -6.828   1.330  0.00  0.00    +0.000 C 
ATOM     33  O   UNL     1       4.462  -8.007   1.582  0.00  0.00    +0.000 OA
BRANCH  32  34
ATOM     34  O   UNL     1       3.655  -6.140   0.672  0.00  0.00    +0.000 OA
ATOM     35  H   UNL     1       3.929  -5.260   0.380  0.00  0.00    +0.000 HD
ENDBRANCH  32  34
ENDBRANCH   5  32
TORSDOF 3
