REMARK  Name = 
REMARK  5 active torsions:
REMARK  status: ('A' for Active; 'I' for Inactive)
REMARK    1  A    between atoms: C_3  and  O_13
REMARK    2  A    between atoms: C_4  and  O_12
REMARK    3  A    between atoms: C_6  and  C_7
REMARK    4  A    between atoms: C_8  and  C_9
REMARK    5  A    between atoms: C_9  and  O_11
REMARK                            x       y       z     vdW  Elec       q    Type
REMARK                         _______ _______ _______ _____ _____    ______ ____
ROOT
ATOM      1  C   UNL     1      -1.921   0.643  -0.005  0.00  0.00    +0.000 A 
ATOM      2  C   UNL     1      -0.719   1.365   0.007  0.00  0.00    +0.000 A 
ATOM      3  C   UNL     1       0.484   0.675   0.002  0.00  0.00    +0.000 A 
ATOM      4  C   UNL     1       0.490  -0.717  -0.007  0.00  0.00    +0.000 A 
ATOM      5  C   UNL     1      -0.697  -1.440  -0.019  0.00  0.00    +0.000 A 
ATOM      6  C   UNL     1      -1.926  -0.764  -0.035  0.00  0.00    +0.000 A 
ENDROOT
BRANCH   6   7
ATOM      7  C   UNL     1      -3.219  -1.471  -0.036  0.00  0.00    +0.000 C 
ATOM      8  C   UNL     1      -3.426  -2.671  -0.603  0.00  0.00    +0.000 C 
BRANCH   8   9
ATOM      9  C   UNL     1      -4.773  -3.279  -0.567  0.00  0.00    +0.000 C 
ATOM     10  O   UNL     1      -5.751  -2.768  -0.049  0.00  0.00    +0.000 OA
BRANCH   9  11
ATOM     11  O   UNL     1      -4.805  -4.475  -1.185  0.00  0.00    +0.000 OA
ATOM     12  H   UNL     1      -3.960  -4.780  -1.561  0.00  0.00    +0.000 HD
ENDBRANCH   9  11
ENDBRANCH   8   9
ENDBRANCH   6   7
BRANCH   4  13
ATOM     13  O   UNL     1       1.677  -1.394  -0.004  0.00  0.00    +0.000 OA
ATOM     14  H   UNL     1       2.359  -0.693   0.011  0.00  0.00    +0.000 HD
ENDBRANCH   4  13
BRANCH   3  15
ATOM     15  O   UNL     1       1.691   1.316   0.009  0.00  0.00    +0.000 OA
ATOM     16  H   UNL     1       1.527   2.274   0.001  0.00  0.00    +0.000 HD
ENDBRANCH   3  15
TORSDOF 5
