REMARK  Name = 
REMARK  10 active torsions:
REMARK  status: ('A' for Active; 'I' for Inactive)
REMARK    1  A    between atoms: C_1  and  C_2
REMARK    2  A    between atoms: C_2  and  C_4
REMARK    3  A    between atoms: C_7  and  C_31
REMARK    4  A    between atoms: C_13  and  C_30
REMARK    5  A    between atoms: C_16  and  O_29
REMARK    6  A    between atoms: C_17  and  C_27
REMARK    7  A    between atoms: C_17  and  C_28
REMARK    8  A    between atoms: C_21  and  C_26
REMARK    9  A    between atoms: C_22  and  C_25
REMARK   10  A    between atoms: C_31  and  O_32
REMARK                            x       y       z     vdW  Elec       q    Type
REMARK                         _______ _______ _______ _____ _____    ______ ____
ROOT
ATOM      1  C   UNL     1       4.734  -1.770  -0.197  0.00  0.00    +0.000 C 
ATOM      2  C   UNL     1       3.833  -1.329   1.038  0.00  0.00    +0.000 C 
ATOM      3  C   UNL     1       4.631  -1.590   2.252  0.00  0.00    +0.000 C 
ATOM      4  C   UNL     1       6.041  -1.205   1.853  0.00  0.00    +0.000 C 
ATOM      5  C   UNL     1       6.321  -1.949   0.511  0.00  0.00    +0.000 C 
ATOM      6  C   UNL     1       7.967  -1.574   0.315  0.00  0.00    +0.000 C 
ATOM      7  C   UNL     1       9.026  -2.619  -0.090  0.00  0.00    +0.000 C 
ATOM      8  C   UNL     1      10.092  -2.749   1.069  0.00  0.00    +0.000 C 
ATOM      9  C   UNL     1      10.874  -1.451   1.386  0.00  0.00    +0.000 C 
ATOM     10  C   UNL     1      12.163  -1.602   2.373  0.00  0.00    +0.000 C 
ATOM     11  C   UNL     1      13.194  -2.695   1.868  0.00  0.00    +0.000 C 
ATOM     12  C   UNL     1      14.600  -2.607   2.508  0.00  0.00    +0.000 C 
ATOM     13  C   UNL     1      15.198  -1.219   2.318  0.00  0.00    +0.000 C 
ATOM     14  C   UNL     1      14.359  -0.145   3.073  0.00  0.00    +0.000 C 
ATOM     15  C   UNL     1      12.969  -0.206   2.341  0.00  0.00    +0.000 C 
ATOM     16  C   UNL     1      12.122   1.051   2.502  0.00  0.00    +0.000 C 
ATOM     17  C   UNL     1      11.004   1.065   1.419  0.00  0.00    +0.000 C 
ATOM     18  C   UNL     1       9.966  -0.109   1.646  0.00  0.00    +0.000 C 
ATOM     19  C   UNL     1       8.625  -0.102   0.570  0.00  0.00    +0.000 C 
ATOM     20  C   UNL     1       7.534   0.851   1.122  0.00  0.00    +0.000 C 
ATOM     21  C   UNL     1       6.150   0.265   1.328  0.00  0.00    +0.000 C 
ATOM     22  C   UNL     1       9.123   0.391  -0.823  0.00  0.00    +0.000 C 
ATOM     23  C   UNL     1       9.522   0.334   3.106  0.00  0.00    +0.000 C 
ATOM     24  C   UNL     1      15.085   1.220   2.910  0.00  0.00    +0.000 C 
ATOM     25  C   UNL     1      14.265  -0.331   4.605  0.00  0.00    +0.000 C 
ATOM     26  C   UNL     1      11.667  -2.179   3.722  0.00  0.00    +0.000 C 
ENDROOT
BRANCH   1  28
ATOM     27  C   UNL     1       4.450   0.207  -2.037  0.00  0.00    +0.000 C 
ATOM     28  C   UNL     1       3.932  -1.004  -1.305  0.00  0.00    +0.000 C 
ATOM     29  C   UNL     1       2.614  -1.254  -1.458  0.00  0.00    +0.000 C 
ENDBRANCH   1  28
BRANCH  13  30
ATOM     30  O   UNL     1      16.578  -1.210   2.641  0.00  0.00    +0.000 OA
ATOM     31  H   UNL     1      17.062  -1.102   1.804  0.00  0.00    +0.000 HD
ENDBRANCH  13  30
BRANCH   4  32
ATOM     32  C   UNL     1       6.865  -1.652   3.090  0.00  0.00    +0.000 C 
BRANCH  32  33
ATOM     33  O   UNL     1       6.930  -3.072   3.261  0.00  0.00    +0.000 OA
ATOM     34  H   UNL     1       6.060  -3.409   3.495  0.00  0.00    +0.000 HD
ENDBRANCH  32  33
ENDBRANCH   4  32
TORSDOF 4
