REMARK  Name = 
REMARK  57 active torsions:
REMARK  status: ('A' for Active; 'I' for Inactive)
REMARK    1  A    between atoms: C_1  and  C_2
REMARK    2  A    between atoms: C_2  and  C_3
REMARK    3  A    between atoms: C_2  and  O_109
REMARK    4  A    between atoms: C_3  and  C_4
REMARK    5  A    between atoms: C_3  and  O_108
REMARK    6  A    between atoms: C_8  and  O_10
REMARK    7  A    between atoms: O_10  and  C_11
REMARK    8  A    between atoms: C_13  and  C_17
REMARK    9  A    between atoms: C_14  and  C_15
REMARK   10  A    between atoms: C_15  and  O_16
REMARK   11  A    between atoms: C_19  and  O_106
REMARK   12  A    between atoms: C_20  and  O_23
REMARK   13  A    between atoms: O_23  and  C_24
REMARK   14  A    between atoms: C_24  and  C_25
REMARK   15  A    between atoms: C_24  and  C_27
REMARK   16  A    between atoms: C_25  and  O_26
REMARK   17  A    between atoms: C_27  and  C_28
REMARK   18  A    between atoms: C_27  and  O_37
REMARK   19  A    between atoms: C_30  and  O_35
REMARK   20  A    between atoms: C_31  and  O_34
REMARK   21  A    between atoms: O_35  and  C_36
REMARK   22  A    between atoms: O_37  and  C_38
REMARK   23  A    between atoms: C_39  and  O_105
REMARK   24  A    between atoms: C_41  and  C_46
REMARK   25  A    between atoms: C_43  and  O_44
REMARK   26  A    between atoms: O_44  and  C_45
REMARK   27  A    between atoms: C_46  and  C_47
REMARK   28  A    between atoms: C_46  and  O_78
REMARK   29  A    between atoms: C_47  and  C_48
REMARK   30  A    between atoms: C_47  and  O_50
REMARK   31  A    between atoms: C_48  and  O_49
REMARK   32  A    between atoms: O_50  and  C_51
REMARK   33  A    between atoms: C_52  and  O_76
REMARK   34  A    between atoms: C_54  and  C_57
REMARK   35  A    between atoms: C_63  and  C_65
REMARK   36  A    between atoms: C_67  and  O_74
REMARK   37  A    between atoms: C_68  and  O_73
REMARK   38  A    between atoms: C_69  and  O_71
REMARK   39  A    between atoms: O_71  and  C_72
REMARK   40  A    between atoms: O_74  and  C_75
REMARK   41  A    between atoms: O_76  and  C_77
REMARK   42  A    between atoms: O_78  and  C_79
REMARK   43  A    between atoms: C_80  and  O_103
REMARK   44  A    between atoms: C_82  and  C_85
REMARK   45  A    between atoms: C_85  and  C_86
REMARK   46  A    between atoms: C_85  and  O_102
REMARK   47  A    between atoms: C_86  and  C_87
REMARK   48  A    between atoms: C_86  and  O_89
REMARK   49  A    between atoms: C_87  and  O_88
REMARK   50  A    between atoms: O_89  and  C_90
REMARK   51  A    between atoms: C_91  and  O_100
REMARK   52  A    between atoms: C_93  and  C_96
REMARK   53  A    between atoms: C_97  and  C_98
REMARK   54  A    between atoms: C_98  and  O_99
REMARK   55  A    between atoms: O_100  and  C_101
REMARK   56  A    between atoms: O_103  and  C_104
REMARK   57  A    between atoms: O_106  and  C_107
REMARK                            x       y       z     vdW  Elec       q    Type
REMARK                         _______ _______ _______ _____ _____    ______ ____
ROOT
ATOM      1  C   UNL     1       8.744   2.410 -13.941  0.00  0.00    +0.000 C 
ENDROOT
BRANCH   1   5
ATOM      2  C   UNL     1       7.599   1.879  -9.720  0.00  0.00    +0.000 A 
ATOM      3  C   UNL     1       8.951   1.906 -10.113  0.00  0.00    +0.000 A 
ATOM      4  C   UNL     1       9.335   2.118 -11.441  0.00  0.00    +0.000 A 
ATOM      5  C   UNL     1       8.382   2.229 -12.459  0.00  0.00    +0.000 A 
ATOM      6  C   UNL     1       7.037   2.222 -12.089  0.00  0.00    +0.000 A 
ATOM      7  C   UNL     1       6.654   2.112 -10.742  0.00  0.00    +0.000 A 
BRANCH   3   8
ATOM      8  O   UNL     1       9.987   1.727  -9.239  0.00  0.00    +0.000 OA
ATOM      9  H   UNL     1      10.097   0.756  -9.185  0.00  0.00    +0.000 HD
ENDBRANCH   3   8
BRANCH   7  10
ATOM     10  O   UNL     1       5.289   2.210 -10.617  0.00  0.00    +0.000 OA
ATOM     11  C   UNL     1       4.817   2.901  -9.472  0.00  0.00    +0.000 C 
ENDBRANCH   7  10
BRANCH   2  12
ATOM     12  O   UNL     1       7.142   1.640  -8.449  0.00  0.00    +0.000 OA
BRANCH  12  13
ATOM     13  C   UNL     1       7.986   1.077  -7.403  0.00  0.00    +0.000 C 
BRANCH  13  14
ATOM     14  C   UNL     1       8.358  -0.384  -7.699  0.00  0.00    +0.000 A 
ATOM     15  C   UNL     1       7.498  -1.242  -8.406  0.00  0.00    +0.000 A 
ATOM     16  C   UNL     1       7.889  -2.536  -8.792  0.00  0.00    +0.000 A 
ATOM     17  C   UNL     1       9.141  -2.997  -8.391  0.00  0.00    +0.000 A 
ATOM     18  C   UNL     1       9.955  -2.204  -7.578  0.00  0.00    +0.000 A 
ATOM     19  C   UNL     1       9.586  -0.898  -7.260  0.00  0.00    +0.000 A 
BRANCH  17  20
ATOM     20  O   UNL     1       9.706  -4.174  -8.793  0.00  0.00    +0.000 OA
ATOM     21  H   UNL     1       9.491  -4.336  -9.731  0.00  0.00    +0.000 HD
ENDBRANCH  17  20
BRANCH  16  22
ATOM     22  O   UNL     1       6.965  -3.157  -9.582  0.00  0.00    +0.000 OA
ATOM     23  C   UNL     1       7.040  -4.560  -9.778  0.00  0.00    +0.000 C 
ENDBRANCH  16  22
ENDBRANCH  13  14
BRANCH  13  24
ATOM     24  C   UNL     1       7.258   1.141  -6.019  0.00  0.00    +0.000 C 
BRANCH  24  25
ATOM     25  C   UNL     1       6.880   2.582  -5.632  0.00  0.00    +0.000 C 
BRANCH  25  26
ATOM     26  O   UNL     1       5.947   3.182  -6.516  0.00  0.00    +0.000 OA
ATOM     27  H   UNL     1       6.395   3.216  -7.380  0.00  0.00    +0.000 HD
ENDBRANCH  25  26
ENDBRANCH  24  25
BRANCH  24  28
ATOM     28  O   UNL     1       8.153   0.670  -4.985  0.00  0.00    +0.000 OA
BRANCH  28  32
ATOM     29  C   UNL     1       7.056  -1.836  -1.796  0.00  0.00    +0.000 A 
ATOM     30  C   UNL     1       6.068  -1.165  -2.521  0.00  0.00    +0.000 A 
ATOM     31  C   UNL     1       6.344  -0.330  -3.606  0.00  0.00    +0.000 A 
ATOM     32  C   UNL     1       7.675  -0.072  -3.941  0.00  0.00    +0.000 A 
ATOM     33  C   UNL     1       8.684  -0.641  -3.140  0.00  0.00    +0.000 A 
ATOM     34  C   UNL     1       8.387  -1.526  -2.089  0.00  0.00    +0.000 A 
BRANCH  29  42
ATOM     35  C   UNL     1       2.574  -1.542   0.944  0.00  0.00    +0.000 A 
ATOM     36  C   UNL     1       3.937  -1.494   1.285  0.00  0.00    +0.000 A 
ATOM     37  C   UNL     1       4.842  -2.223   0.533  0.00  0.00    +0.000 A 
ATOM     38  C   UNL     1       4.415  -3.009  -0.528  0.00  0.00    +0.000 A 
ATOM     39  C   UNL     1       3.080  -3.074  -0.910  0.00  0.00    +0.000 A 
ATOM     40  C   UNL     1       2.163  -2.336  -0.153  0.00  0.00    +0.000 A 
ATOM     41  O   UNL     1       5.465  -3.596  -1.207  0.00  0.00    +0.000 OA
ATOM     42  C   UNL     1       6.654  -2.875  -0.749  0.00  0.00    +0.000 C 
ATOM     43  C   UNL     1       6.330  -2.283   0.641  0.00  0.00    +0.000 C 
BRANCH  39  44
ATOM     44  O   UNL     1       2.781  -3.796  -2.030  0.00  0.00    +0.000 OA
ATOM     45  C   UNL     1       1.419  -3.804  -2.445  0.00  0.00    +0.000 C 
ENDBRANCH  39  44
BRANCH  43  46
ATOM     46  C   UNL     1       6.780  -3.226   1.760  0.00  0.00    +0.000 C 
BRANCH  46  47
ATOM     47  O   UNL     1       6.534  -2.664   3.047  0.00  0.00    +0.000 OA
ATOM     48  H   UNL     1       6.957  -1.790   3.086  0.00  0.00    +0.000 HD
ENDBRANCH  46  47
ENDBRANCH  43  46
BRANCH  35  49
ATOM     49  C   UNL     1       1.535  -0.729   1.698  0.00  0.00    +0.000 C 
BRANCH  49  51
ATOM     50  C   UNL     1       0.867   0.817  -0.267  0.00  0.00    +0.000 C 
ATOM     51  C   UNL     1       1.340   0.719   1.178  0.00  0.00    +0.000 C 
BRANCH  51  52
ATOM     52  O   UNL     1       2.549   1.474   1.349  0.00  0.00    +0.000 OA
ATOM     53  H   UNL     1       3.170   1.190   0.653  0.00  0.00    +0.000 HD
ENDBRANCH  51  52
ENDBRANCH  49  51
BRANCH  49  54
ATOM     54  O   UNL     1       1.898  -0.683   3.081  0.00  0.00    +0.000 OA
ATOM     55  H   UNL     1       2.473   0.099   3.178  0.00  0.00    +0.000 HD
ENDBRANCH  49  54
ENDBRANCH  35  49
ENDBRANCH  29  42
BRANCH  31  56
ATOM     56  O   UNL     1       5.303   0.268  -4.266  0.00  0.00    +0.000 OA
ATOM     57  C   UNL     1       4.198  -0.607  -4.517  0.00  0.00    +0.000 C 
ENDBRANCH  31  56
ENDBRANCH  28  32
ENDBRANCH  24  28
ENDBRANCH  13  24
ENDBRANCH  12  13
ENDBRANCH   2  12
ENDBRANCH   1   5
BRANCH   1  58
ATOM     58  O   UNL     1      10.066   1.963 -14.290  0.00  0.00    +0.000 OA
BRANCH  58  59
ATOM     59  C   UNL     1      10.405   0.671 -13.932  0.00  0.00    +0.000 A 
ATOM     60  C   UNL     1      11.767   0.415 -13.719  0.00  0.00    +0.000 A 
ATOM     61  C   UNL     1      12.165  -0.823 -13.195  0.00  0.00    +0.000 A 
ATOM     62  C   UNL     1      11.225  -1.805 -12.830  0.00  0.00    +0.000 A 
ATOM     63  C   UNL     1       9.879  -1.560 -13.129  0.00  0.00    +0.000 A 
ATOM     64  C   UNL     1       9.475  -0.345 -13.683  0.00  0.00    +0.000 A 
BRANCH  60  65
ATOM     65  O   UNL     1      12.628   1.459 -13.943  0.00  0.00    +0.000 OA
ATOM     66  C   UNL     1      14.003   1.133 -14.100  0.00  0.00    +0.000 C 
ENDBRANCH  60  65
BRANCH  62  67
ATOM     67  C   UNL     1      11.637  -3.081 -12.099  0.00  0.00    +0.000 C 
BRANCH  67  68
ATOM     68  O   UNL     1      10.491  -3.617 -11.405  0.00  0.00    +0.000 OA
ATOM     69  H   UNL     1      10.129  -2.871 -10.896  0.00  0.00    +0.000 HD
ENDBRANCH  67  68
BRANCH  67  70
ATOM     70  C   UNL     1      12.797  -2.886 -11.076  0.00  0.00    +0.000 C 
BRANCH  70  71
ATOM     71  C   UNL     1      12.436  -1.842 -10.008  0.00  0.00    +0.000 C 
BRANCH  71  72
ATOM     72  O   UNL     1      13.481  -1.637  -9.064  0.00  0.00    +0.000 OA
ATOM     73  H   UNL     1      13.430  -2.376  -8.430  0.00  0.00    +0.000 HD
ENDBRANCH  71  72
ENDBRANCH  70  71
BRANCH  70  74
ATOM     74  O   UNL     1      13.094  -4.147 -10.416  0.00  0.00    +0.000 OA
BRANCH  74  75
ATOM     75  C   UNL     1      14.125  -4.881 -10.953  0.00  0.00    +0.000 A 
ATOM     76  C   UNL     1      14.077  -6.285 -10.994  0.00  0.00    +0.000 A 
ATOM     77  C   UNL     1      15.159  -6.993 -11.553  0.00  0.00    +0.000 A 
ATOM     78  C   UNL     1      16.277  -6.349 -12.089  0.00  0.00    +0.000 A 
ATOM     79  C   UNL     1      16.342  -4.961 -11.988  0.00  0.00    +0.000 A 
ATOM     80  C   UNL     1      15.294  -4.246 -11.399  0.00  0.00    +0.000 A 
BRANCH  76  81
ATOM     81  O   UNL     1      13.106  -7.142 -10.556  0.00  0.00    +0.000 OA
ATOM     82  C   UNL     1      11.878  -6.628 -10.075  0.00  0.00    +0.000 C 
ENDBRANCH  76  81
BRANCH  78  83
ATOM     83  C   UNL     1      17.373  -7.136 -12.660  0.00  0.00    +0.000 C 
ATOM     84  C   UNL     1      18.114  -6.723 -13.709  0.00  0.00    +0.000 C 
BRANCH  84  85
ATOM     85  C   UNL     1      19.219  -7.512 -14.311  0.00  0.00    +0.000 C 
BRANCH  85  86
ATOM     86  O   UNL     1      18.906  -7.757 -15.672  0.00  0.00    +0.000 OA
ATOM     87  H   UNL     1      18.022  -8.162 -15.685  0.00  0.00    +0.000 HD
ENDBRANCH  85  86
ENDBRANCH  84  85
ENDBRANCH  78  83
ENDBRANCH  74  75
ENDBRANCH  70  74
ENDBRANCH  67  70
ENDBRANCH  62  67
ENDBRANCH  58  59
ENDBRANCH   1  58
BRANCH   1  88
ATOM     88  C   UNL     1       8.484   3.898 -14.341  0.00  0.00    +0.000 C 
BRANCH  88  89
ATOM     89  O   UNL     1       8.319   4.028 -15.784  0.00  0.00    +0.000 OA
BRANCH  89  90
ATOM     90  C   UNL     1       7.214   4.744 -16.205  0.00  0.00    +0.000 A 
ATOM     91  C   UNL     1       6.667   4.546 -17.491  0.00  0.00    +0.000 A 
ATOM     92  C   UNL     1       5.539   5.302 -17.919  0.00  0.00    +0.000 A 
ATOM     93  C   UNL     1       4.911   6.219 -17.072  0.00  0.00    +0.000 A 
ATOM     94  C   UNL     1       5.456   6.367 -15.788  0.00  0.00    +0.000 A 
ATOM     95  C   UNL     1       6.612   5.702 -15.397  0.00  0.00    +0.000 A 
BRANCH  93  96
ATOM     96  C   UNL     1       3.657   7.026 -17.390  0.00  0.00    +0.000 C 
ATOM     97  C   UNL     1       3.445   7.522 -18.828  0.00  0.00    +0.000 C 
ATOM     98  C   UNL     1       2.174   7.008 -19.470  0.00  0.00    +0.000 C 
ATOM     99  O   UNL     1       1.109   7.774 -18.908  0.00  0.00    +0.000 OA
ATOM    100  C   UNL     1       1.629   9.066 -18.576  0.00  0.00    +0.000 C 
ATOM    101  C   UNL     1       3.156   9.003 -18.666  0.00  0.00    +0.000 C 
ATOM    102  C   UNL     1       3.804   9.390 -17.352  0.00  0.00    +0.000 C 
ATOM    103  O   UNL     1       3.686   8.212 -16.548  0.00  0.00    +0.000 OA
BRANCH 102 104
ATOM    104  C   UNL     1       5.251   9.866 -17.391  0.00  0.00    +0.000 A 
ATOM    105  C   UNL     1       5.699  10.804 -16.441  0.00  0.00    +0.000 A 
ATOM    106  C   UNL     1       7.025  11.261 -16.436  0.00  0.00    +0.000 A 
ATOM    107  C   UNL     1       7.940  10.705 -17.334  0.00  0.00    +0.000 A 
ATOM    108  C   UNL     1       7.523   9.788 -18.304  0.00  0.00    +0.000 A 
ATOM    109  C   UNL     1       6.181   9.393 -18.332  0.00  0.00    +0.000 A 
BRANCH 108 110
ATOM    110  O   UNL     1       8.491   9.321 -19.156  0.00  0.00    +0.000 OA
ATOM    111  C   UNL     1       8.119   8.319 -20.091  0.00  0.00    +0.000 C 
ENDBRANCH 108 110
BRANCH 107 112
ATOM    112  O   UNL     1       9.279  10.992 -17.246  0.00  0.00    +0.000 OA
ATOM    113  H   UNL     1       9.480  11.006 -16.295  0.00  0.00    +0.000 HD
ENDBRANCH 107 112
BRANCH 106 114
ATOM    114  O   UNL     1       7.324  12.204 -15.485  0.00  0.00    +0.000 OA
ATOM    115  C   UNL     1       8.223  13.237 -15.895  0.00  0.00    +0.000 C 
ENDBRANCH 106 114
ENDBRANCH 102 104
ENDBRANCH  93  96
BRANCH  91 116
ATOM    116  O   UNL     1       7.141   3.673 -18.443  0.00  0.00    +0.000 OA
ATOM    117  C   UNL     1       7.527   2.393 -17.946  0.00  0.00    +0.000 C 
ENDBRANCH  91 116
ENDBRANCH  89  90
ENDBRANCH  88  89
BRANCH  88 118
ATOM    118  C   UNL     1       9.533   4.900 -13.814  0.00  0.00    +0.000 C 
BRANCH 118 119
ATOM    119  O   UNL     1       9.579   5.027 -12.393  0.00  0.00    +0.000 OA
ATOM    120  H   UNL     1       8.771   4.665 -11.994  0.00  0.00    +0.000 HD
ENDBRANCH 118 119
ENDBRANCH  88 118
ENDBRANCH   1  88
TORSDOF 47
