REMARK  Name = 
REMARK  14 active torsions:
REMARK  status: ('A' for Active; 'I' for Inactive)
REMARK    1  A    between atoms: C_3  and  O_45
REMARK    2  A    between atoms: C_5  and  O_20
REMARK    3  A    between atoms: C_6  and  O_8
REMARK    4  A    between atoms: O_8  and  C_9
REMARK    5  A    between atoms: C_9  and  C_11
REMARK    6  A    between atoms: C_13  and  O_19
REMARK    7  A    between atoms: C_14  and  O_18
REMARK    8  A    between atoms: C_15  and  O_17
REMARK    9  A    between atoms: C_26  and  O_44
REMARK   10  A    between atoms: C_27  and  O_43
REMARK   11  A    between atoms: C_28  and  O_42
REMARK   12  A    between atoms: C_31  and  O_41
REMARK   13  A    between atoms: C_32  and  O_40
REMARK   14  A    between atoms: C_33  and  O_39
REMARK                            x       y       z     vdW  Elec       q    Type
REMARK                         _______ _______ _______ _____ _____    ______ ____
ROOT
ATOM      1  C   UNL     1       0.719  -0.877  -0.595  0.00  0.00    +0.000 C 
ATOM      2  C   UNL     1       2.210  -0.330  -0.412  0.00  0.00    +0.000 C 
ATOM      3  C   UNL     1       3.236  -1.424  -0.708  0.00  0.00    +0.000 C 
ATOM      4  C   UNL     1       3.044  -1.689  -2.208  0.00  0.00    +0.000 C 
ATOM      5  C   UNL     1       3.499  -0.505  -3.035  0.00  0.00    +0.000 C 
ATOM      6  C   UNL     1       2.650   0.715  -2.600  0.00  0.00    +0.000 C 
ATOM      7  O   UNL     1       2.575   0.862  -1.160  0.00  0.00    +0.000 OA
ATOM      8  O   UNL     1       3.575  -2.935  -2.606  0.00  0.00    +0.000 OA
ATOM      9  C   UNL     1       2.968  -3.350  -3.743  0.00  0.00    +0.000 C 
ATOM     10  O   UNL     1       2.397  -2.691  -4.586  0.00  0.00    +0.000 OA
ATOM     11  C   UNL     1       3.132  -4.780  -3.860  0.00  0.00    +0.000 A 
ATOM     12  C   UNL     1       3.685  -5.150  -5.116  0.00  0.00    +0.000 A 
ATOM     13  C   UNL     1       4.019  -6.459  -5.357  0.00  0.00    +0.000 A 
ATOM     14  C   UNL     1       3.787  -7.385  -4.361  0.00  0.00    +0.000 A 
ATOM     15  C   UNL     1       3.199  -7.010  -3.136  0.00  0.00    +0.000 A 
ATOM     16  C   UNL     1       2.824  -5.672  -2.813  0.00  0.00    +0.000 A 
ATOM     17  C   UNL     1       2.285  -5.303  -1.416  0.00  0.00    +0.000 A 
ATOM     18  C   UNL     1       3.043  -5.733  -0.286  0.00  0.00    +0.000 A 
ATOM     19  C   UNL     1       2.567  -5.614   1.025  0.00  0.00    +0.000 A 
ATOM     20  C   UNL     1       1.286  -5.175   1.274  0.00  0.00    +0.000 A 
ATOM     21  C   UNL     1       0.486  -4.769   0.232  0.00  0.00    +0.000 A 
ATOM     22  C   UNL     1       1.042  -4.633  -1.064  0.00  0.00    +0.000 A 
ATOM     23  C   UNL     1       0.513  -3.307  -1.631  0.00  0.00    +0.000 C 
ATOM     24  O   UNL     1       0.133  -3.084  -2.747  0.00  0.00    +0.000 OA
ATOM     25  O   UNL     1       0.670  -2.376  -0.601  0.00  0.00    +0.000 OA
ENDROOT
BRANCH  19  26
ATOM     26  O   UNL     1       3.382  -5.888   2.091  0.00  0.00    +0.000 OA
ATOM     27  H   UNL     1       4.243  -6.098   1.672  0.00  0.00    +0.000 HD
ENDBRANCH  19  26
BRANCH   5  28
ATOM     28  O   UNL     1       4.913  -0.326  -2.910  0.00  0.00    +0.000 OA
ATOM     29  H   UNL     1       5.110   0.013  -2.021  0.00  0.00    +0.000 HD
ENDBRANCH   5  28
BRANCH  20  30
ATOM     30  O   UNL     1       0.858  -4.960   2.551  0.00  0.00    +0.000 OA
ATOM     31  H   UNL     1       1.650  -5.121   3.103  0.00  0.00    +0.000 HD
ENDBRANCH  20  30
BRANCH   3  32
ATOM     32  O   UNL     1       3.074  -2.547   0.153  0.00  0.00    +0.000 OA
ATOM     33  H   UNL     1       2.140  -2.619   0.424  0.00  0.00    +0.000 HD
ENDBRANCH   3  32
BRANCH  18  34
ATOM     34  O   UNL     1       4.334  -6.220  -0.346  0.00  0.00    +0.000 OA
ATOM     35  H   UNL     1       4.488  -6.581  -1.235  0.00  0.00    +0.000 HD
ENDBRANCH  18  34
BRANCH  15  36
ATOM     36  O   UNL     1       3.093  -8.013  -2.200  0.00  0.00    +0.000 OA
ATOM     37  H   UNL     1       3.412  -8.824  -2.652  0.00  0.00    +0.000 HD
ENDBRANCH  15  36
BRANCH  14  38
ATOM     38  O   UNL     1       4.175  -8.688  -4.546  0.00  0.00    +0.000 OA
ATOM     39  H   UNL     1       4.567  -8.705  -5.446  0.00  0.00    +0.000 HD
ENDBRANCH  14  38
BRANCH  13  40
ATOM     40  O   UNL     1       4.601  -6.867  -6.520  0.00  0.00    +0.000 OA
ATOM     41  H   UNL     1       4.663  -6.101  -7.124  0.00  0.00    +0.000 HD
ENDBRANCH  13  40
BRANCH   6  42
ATOM     42  O   UNL     1       3.222   1.884  -3.223  0.00  0.00    +0.000 OA
BRANCH  42  43
ATOM     43  C   UNL     1       2.914   2.006  -4.544  0.00  0.00    +0.000 C 
ATOM     44  O   UNL     1       2.141   1.310  -5.168  0.00  0.00    +0.000 OA
BRANCH  43  45
ATOM     45  C   UNL     1       3.661   3.135  -5.165  0.00  0.00    +0.000 A 
ATOM     46  C   UNL     1       3.372   3.456  -6.506  0.00  0.00    +0.000 A 
ATOM     47  C   UNL     1       4.112   4.443  -7.150  0.00  0.00    +0.000 A 
ATOM     48  C   UNL     1       5.127   5.109  -6.477  0.00  0.00    +0.000 A 
ATOM     49  C   UNL     1       5.395   4.804  -5.140  0.00  0.00    +0.000 A 
ATOM     50  C   UNL     1       4.672   3.833  -4.478  0.00  0.00    +0.000 A 
BRANCH  49  51
ATOM     51  O   UNL     1       6.419   5.438  -4.499  0.00  0.00    +0.000 OA
ATOM     52  H   UNL     1       6.810   6.029  -5.172  0.00  0.00    +0.000 HD
ENDBRANCH  49  51
BRANCH  48  53
ATOM     53  O   UNL     1       5.892   6.043  -7.110  0.00  0.00    +0.000 OA
ATOM     54  H   UNL     1       5.537   6.064  -8.022  0.00  0.00    +0.000 HD
ENDBRANCH  48  53
BRANCH  47  55
ATOM     55  O   UNL     1       3.893   4.778  -8.458  0.00  0.00    +0.000 OA
ATOM     56  H   UNL     1       3.165   4.228  -8.798  0.00  0.00    +0.000 HD
ENDBRANCH  47  55
ENDBRANCH  43  45
ENDBRANCH  42  43
ENDBRANCH   6  42
TORSDOF 14
