REMARK  Name = 
REMARK  4 active torsions:
REMARK  status: ('A' for Active; 'I' for Inactive)
REMARK    1  A    between atoms: C_1  and  C_2
REMARK    2  A    between atoms: C_5  and  C_8
REMARK    3  A    between atoms: C_8  and  C_9
REMARK    4  A    between atoms: C_8  and  C_10
REMARK                            x       y       z     vdW  Elec       q    Type
REMARK                         _______ _______ _______ _____ _____    ______ ____
ROOT
ATOM      1  C   UNL     1       0.822   0.189  -0.012  0.00  0.00    +0.000 C 
ATOM      2  C   UNL     1       2.322   0.137  -0.037  0.00  0.00    +0.000 C 
ATOM      3  C   UNL     1       3.081   1.241  -0.040  0.00  0.00    +0.000 C 
ATOM      4  C   UNL     1       4.522   1.184  -0.035  0.00  0.00    +0.000 C 
ATOM      5  C   UNL     1       5.205   0.025  -0.036  0.00  0.00    +0.000 C 
ATOM      6  C   UNL     1       4.473  -1.301  -0.062  0.00  0.00    +0.000 C 
ATOM      7  C   UNL     1       2.933  -1.240  -0.050  0.00  0.00    +0.000 C 
ENDROOT
BRANCH   5   8
ATOM      8  C   UNL     1       6.728   0.008  -0.001  0.00  0.00    +0.000 C 
ATOM      9  C   UNL     1       7.264  -0.688   1.253  0.00  0.00    +0.000 C 
ATOM     10  C   UNL     1       7.332  -0.621  -1.259  0.00  0.00    +0.000 C 
ENDBRANCH   5   8
TORSDOF 1
